version 3
run General-0-20251023-18:38:11-10035
attr configname General
attr datetime 20251023-18:38:11
attr datetimef 20251023-183811
attr experiment General
attr inifile omnetpp.ini
attr iterationvars ""
attr iterationvarsd ""
attr iterationvarsf ""
attr measurement ""
attr network ModbusTest1
attr processid 10035
attr repetition 0
attr replication #0
attr resultdir results
attr runnumber 0
attr seedset 0
config image-path ../inet4.5/images
config network ModbusTest1
config sim-time-limit 20s
config *.*.eth[*].bitrate 100Mbps
config *.numClients 2
config *.operatorStation.numApps 2
config *.operatorStation.app[0].typename OperatorStationApp
config *.operatorStation.app[0].connectAddress "\"server\""
config *.operatorStation.app[0].connectPort 1000
config *.operatorStation.app[0].interval 0.5s
config *.operatorStation.app[1].typename OperatorStationApp2
config *.operatorStation.app[1].connectAddress "\"server\""
config *.operatorStation.app[1].connectPort 666
config *.operatorStation.app[1].modbusRequest "\"client[0] 01 10 001A 0001 00 02\""
config *.operatorStation.app[1].sendTime 4s
config *.server.numApps 3
config *.server.app[0].typename ModbusMasterApp
config *.server.app[0].numConnect 2
config *.server.app[0].configFile "\"ModbusStorageConfig.json\""
config *.server.app[0].readInterval 1s
config *.server.app[1].typename ModbusTcpServerApp
config *.server.app[1].localPort 1000
config *.server.app[2].typename TransitApp
config *.server.app[2].localPort 666
config *.client[*].numApps 1
config *.client[*].app[0].typename ModbusSlaveApp
config *.client[*].app[0].localPort 502
config *.client[*].app[0].slavsConfigPath "\"ModbusStorageConfig.json\""
config *.client[0].app[0].localAddress "\"10.0.0.7\""
config *.client[1].app[0].localAddress "\"10.0.0.5\""
config **.crcMode "\"computed\""
config **.fcsMode "\"computed\""
config *.server.numPcapRecorders 1
config *.server.pcapRecorder[*].pcapFile "\"results/server.pcap\""
config *.visualizer.interfaceTableVisualizer.displayInterfaceTables true

par ModbusTest1.operatorStation.ethg$o[0].channel typename "\"inet.node.ethernet.EthernetLink\""
par ModbusTest1.operatorStation.ethg$o[0].channel disabled false
attr mutable ""
par ModbusTest1.operatorStation.ethg$o[0].channel delay 5e-08s
attr mutable ""
attr unit s
par ModbusTest1.operatorStation.ethg$o[0].channel datarate 0bps
attr mutable ""
attr unit bps
par ModbusTest1.operatorStation.ethg$o[0].channel ber 0
attr mutable ""
par ModbusTest1.operatorStation.ethg$o[0].channel per 0
attr mutable ""
par ModbusTest1.operatorStation.ethg$o[0].channel length 10m
attr unit m
par ModbusTest1.switch1.ethg$o[0].channel typename "\"inet.node.ethernet.EthernetLink\""
par ModbusTest1.switch1.ethg$o[0].channel disabled false
attr mutable ""
par ModbusTest1.switch1.ethg$o[0].channel delay 5e-08s
attr mutable ""
attr unit s
par ModbusTest1.switch1.ethg$o[0].channel datarate 0bps
attr mutable ""
attr unit bps
par ModbusTest1.switch1.ethg$o[0].channel ber 0
attr mutable ""
par ModbusTest1.switch1.ethg$o[0].channel per 0
attr mutable ""
par ModbusTest1.switch1.ethg$o[0].channel length 10m
attr unit m
par ModbusTest1.operatorStation.ethg$o[1].channel typename "\"inet.node.ethernet.EthernetLink\""
par ModbusTest1.operatorStation.ethg$o[1].channel disabled false
attr mutable ""
par ModbusTest1.operatorStation.ethg$o[1].channel delay 5e-08s
attr mutable ""
attr unit s
par ModbusTest1.operatorStation.ethg$o[1].channel datarate 0bps
attr mutable ""
attr unit bps
par ModbusTest1.operatorStation.ethg$o[1].channel ber 0
attr mutable ""
par ModbusTest1.operatorStation.ethg$o[1].channel per 0
attr mutable ""
par ModbusTest1.operatorStation.ethg$o[1].channel length 10m
attr unit m
par ModbusTest1.switch2.ethg$o[0].channel typename "\"inet.node.ethernet.EthernetLink\""
par ModbusTest1.switch2.ethg$o[0].channel disabled false
attr mutable ""
par ModbusTest1.switch2.ethg$o[0].channel delay 5e-08s
attr mutable ""
attr unit s
par ModbusTest1.switch2.ethg$o[0].channel datarate 0bps
attr mutable ""
attr unit bps
par ModbusTest1.switch2.ethg$o[0].channel ber 0
attr mutable ""
par ModbusTest1.switch2.ethg$o[0].channel per 0
attr mutable ""
par ModbusTest1.switch2.ethg$o[0].channel length 10m
attr unit m
par ModbusTest1.switch1.ethg$o[1].channel typename "\"inet.node.ethernet.EthernetLink\""
par ModbusTest1.switch1.ethg$o[1].channel disabled false
attr mutable ""
par ModbusTest1.switch1.ethg$o[1].channel delay 5e-08s
attr mutable ""
attr unit s
par ModbusTest1.switch1.ethg$o[1].channel datarate 0bps
attr mutable ""
attr unit bps
par ModbusTest1.switch1.ethg$o[1].channel ber 0
attr mutable ""
par ModbusTest1.switch1.ethg$o[1].channel per 0
attr mutable ""
par ModbusTest1.switch1.ethg$o[1].channel length 10m
attr unit m
par ModbusTest1.switch2.ethg$o[1].channel typename "\"inet.node.ethernet.EthernetLink\""
par ModbusTest1.switch2.ethg$o[1].channel disabled false
attr mutable ""
par ModbusTest1.switch2.ethg$o[1].channel delay 5e-08s
attr mutable ""
attr unit s
par ModbusTest1.switch2.ethg$o[1].channel datarate 0bps
attr mutable ""
attr unit bps
par ModbusTest1.switch2.ethg$o[1].channel ber 0
attr mutable ""
par ModbusTest1.switch2.ethg$o[1].channel per 0
attr mutable ""
par ModbusTest1.switch2.ethg$o[1].channel length 10m
attr unit m
par ModbusTest1.switch1.ethg$o[2].channel typename "\"inet.node.ethernet.EthernetLink\""
par ModbusTest1.switch1.ethg$o[2].channel disabled false
attr mutable ""
par ModbusTest1.switch1.ethg$o[2].channel delay 5e-08s
attr mutable ""
attr unit s
par ModbusTest1.switch1.ethg$o[2].channel datarate 0bps
attr mutable ""
attr unit bps
par ModbusTest1.switch1.ethg$o[2].channel ber 0
attr mutable ""
par ModbusTest1.switch1.ethg$o[2].channel per 0
attr mutable ""
par ModbusTest1.switch1.ethg$o[2].channel length 10m
attr unit m
par ModbusTest1.server.ethg$o[0].channel typename "\"inet.node.ethernet.EthernetLink\""
par ModbusTest1.server.ethg$o[0].channel disabled false
attr mutable ""
par ModbusTest1.server.ethg$o[0].channel delay 5e-08s
attr mutable ""
attr unit s
par ModbusTest1.server.ethg$o[0].channel datarate 0bps
attr mutable ""
attr unit bps
par ModbusTest1.server.ethg$o[0].channel ber 0
attr mutable ""
par ModbusTest1.server.ethg$o[0].channel per 0
attr mutable ""
par ModbusTest1.server.ethg$o[0].channel length 10m
attr unit m
par ModbusTest1.switch2.ethg$o[2].channel typename "\"inet.node.ethernet.EthernetLink\""
par ModbusTest1.switch2.ethg$o[2].channel disabled false
attr mutable ""
par ModbusTest1.switch2.ethg$o[2].channel delay 5e-08s
attr mutable ""
attr unit s
par ModbusTest1.switch2.ethg$o[2].channel datarate 0bps
attr mutable ""
attr unit bps
par ModbusTest1.switch2.ethg$o[2].channel ber 0
attr mutable ""
par ModbusTest1.switch2.ethg$o[2].channel per 0
attr mutable ""
par ModbusTest1.switch2.ethg$o[2].channel length 10m
attr unit m
par ModbusTest1.server.ethg$o[1].channel typename "\"inet.node.ethernet.EthernetLink\""
par ModbusTest1.server.ethg$o[1].channel disabled false
attr mutable ""
par ModbusTest1.server.ethg$o[1].channel delay 5e-08s
attr mutable ""
attr unit s
par ModbusTest1.server.ethg$o[1].channel datarate 0bps
attr mutable ""
attr unit bps
par ModbusTest1.server.ethg$o[1].channel ber 0
attr mutable ""
par ModbusTest1.server.ethg$o[1].channel per 0
attr mutable ""
par ModbusTest1.server.ethg$o[1].channel length 10m
attr unit m
par ModbusTest1.client[0].ethg$o[0].channel typename "\"inet.node.ethernet.EthernetLink\""
par ModbusTest1.client[0].ethg$o[0].channel disabled false
attr mutable ""
par ModbusTest1.client[0].ethg$o[0].channel delay 5e-08s
attr mutable ""
attr unit s
par ModbusTest1.client[0].ethg$o[0].channel datarate 0bps
attr mutable ""
attr unit bps
par ModbusTest1.client[0].ethg$o[0].channel ber 0
attr mutable ""
par ModbusTest1.client[0].ethg$o[0].channel per 0
attr mutable ""
par ModbusTest1.client[0].ethg$o[0].channel length 10m
attr unit m
par ModbusTest1.switch1.ethg$o[3].channel typename "\"inet.node.ethernet.EthernetLink\""
par ModbusTest1.switch1.ethg$o[3].channel disabled false
attr mutable ""
par ModbusTest1.switch1.ethg$o[3].channel delay 5e-08s
attr mutable ""
attr unit s
par ModbusTest1.switch1.ethg$o[3].channel datarate 0bps
attr mutable ""
attr unit bps
par ModbusTest1.switch1.ethg$o[3].channel ber 0
attr mutable ""
par ModbusTest1.switch1.ethg$o[3].channel per 0
attr mutable ""
par ModbusTest1.switch1.ethg$o[3].channel length 10m
attr unit m
par ModbusTest1.client[0].ethg$o[1].channel typename "\"inet.node.ethernet.EthernetLink\""
par ModbusTest1.client[0].ethg$o[1].channel disabled false
attr mutable ""
par ModbusTest1.client[0].ethg$o[1].channel delay 5e-08s
attr mutable ""
attr unit s
par ModbusTest1.client[0].ethg$o[1].channel datarate 0bps
attr mutable ""
attr unit bps
par ModbusTest1.client[0].ethg$o[1].channel ber 0
attr mutable ""
par ModbusTest1.client[0].ethg$o[1].channel per 0
attr mutable ""
par ModbusTest1.client[0].ethg$o[1].channel length 10m
attr unit m
par ModbusTest1.switch2.ethg$o[3].channel typename "\"inet.node.ethernet.EthernetLink\""
par ModbusTest1.switch2.ethg$o[3].channel disabled false
attr mutable ""
par ModbusTest1.switch2.ethg$o[3].channel delay 5e-08s
attr mutable ""
attr unit s
par ModbusTest1.switch2.ethg$o[3].channel datarate 0bps
attr mutable ""
attr unit bps
par ModbusTest1.switch2.ethg$o[3].channel ber 0
attr mutable ""
par ModbusTest1.switch2.ethg$o[3].channel per 0
attr mutable ""
par ModbusTest1.switch2.ethg$o[3].channel length 10m
attr unit m
par ModbusTest1.client[1].ethg$o[0].channel typename "\"inet.node.ethernet.EthernetLink\""
par ModbusTest1.client[1].ethg$o[0].channel disabled false
attr mutable ""
par ModbusTest1.client[1].ethg$o[0].channel delay 5e-08s
attr mutable ""
attr unit s
par ModbusTest1.client[1].ethg$o[0].channel datarate 0bps
attr mutable ""
attr unit bps
par ModbusTest1.client[1].ethg$o[0].channel ber 0
attr mutable ""
par ModbusTest1.client[1].ethg$o[0].channel per 0
attr mutable ""
par ModbusTest1.client[1].ethg$o[0].channel length 10m
attr unit m
par ModbusTest1.switch1.ethg$o[4].channel typename "\"inet.node.ethernet.EthernetLink\""
par ModbusTest1.switch1.ethg$o[4].channel disabled false
attr mutable ""
par ModbusTest1.switch1.ethg$o[4].channel delay 5e-08s
attr mutable ""
attr unit s
par ModbusTest1.switch1.ethg$o[4].channel datarate 0bps
attr mutable ""
attr unit bps
par ModbusTest1.switch1.ethg$o[4].channel ber 0
attr mutable ""
par ModbusTest1.switch1.ethg$o[4].channel per 0
attr mutable ""
par ModbusTest1.switch1.ethg$o[4].channel length 10m
attr unit m
par ModbusTest1.client[1].ethg$o[1].channel typename "\"inet.node.ethernet.EthernetLink\""
par ModbusTest1.client[1].ethg$o[1].channel disabled false
attr mutable ""
par ModbusTest1.client[1].ethg$o[1].channel delay 5e-08s
attr mutable ""
attr unit s
par ModbusTest1.client[1].ethg$o[1].channel datarate 0bps
attr mutable ""
attr unit bps
par ModbusTest1.client[1].ethg$o[1].channel ber 0
attr mutable ""
par ModbusTest1.client[1].ethg$o[1].channel per 0
attr mutable ""
par ModbusTest1.client[1].ethg$o[1].channel length 10m
attr unit m
par ModbusTest1.switch2.ethg$o[4].channel typename "\"inet.node.ethernet.EthernetLink\""
par ModbusTest1.switch2.ethg$o[4].channel disabled false
attr mutable ""
par ModbusTest1.switch2.ethg$o[4].channel delay 5e-08s
attr mutable ""
attr unit s
par ModbusTest1.switch2.ethg$o[4].channel datarate 0bps
attr mutable ""
attr unit bps
par ModbusTest1.switch2.ethg$o[4].channel ber 0
attr mutable ""
par ModbusTest1.switch2.ethg$o[4].channel per 0
attr mutable ""
par ModbusTest1.switch2.ethg$o[4].channel length 10m
attr unit m
par ModbusTest1.visualizer.sceneVisualizer typename "\"inet.visualizer.canvas.scene.SceneCanvasVisualizer\""
par ModbusTest1.visualizer.sceneVisualizer visualizationTargetModule "\"^.^\""
par ModbusTest1.visualizer.sceneVisualizer visualizationSubjectModule "\"^.^\""
par ModbusTest1.visualizer.sceneVisualizer tags "\"\""
par ModbusTest1.visualizer.sceneVisualizer physicalEnvironmentModule "\"physicalEnvironment\""
par ModbusTest1.visualizer.sceneVisualizer networkNodeVisualizerModule "\"^.networkNodeVisualizer\""
par ModbusTest1.visualizer.sceneVisualizer axisLength "nan m"
attr mutable ""
attr unit m
par ModbusTest1.visualizer.sceneVisualizer animationSpeed 0
par ModbusTest1.visualizer.sceneVisualizer sceneMinX "nan m"
attr unit m
par ModbusTest1.visualizer.sceneVisualizer sceneMinY "nan m"
attr unit m
par ModbusTest1.visualizer.sceneVisualizer sceneMinZ "nan m"
attr unit m
par ModbusTest1.visualizer.sceneVisualizer sceneMaxX "nan m"
attr unit m
par ModbusTest1.visualizer.sceneVisualizer sceneMaxY "nan m"
attr unit m
par ModbusTest1.visualizer.sceneVisualizer sceneMaxZ "nan m"
attr unit m
par ModbusTest1.visualizer.sceneVisualizer zIndex 0
par ModbusTest1.visualizer.sceneVisualizer viewAngle "\"x right y down z out\""
attr mutable ""
par ModbusTest1.visualizer.sceneVisualizer viewScale "\"1 1\""
attr mutable ""
par ModbusTest1.visualizer.sceneVisualizer viewTranslation "\"0 0\""
attr mutable ""
par ModbusTest1.visualizer.sceneVisualizer descriptionFigure "\"\""
par ModbusTest1.visualizer.physicalEnvironmentVisualizer typename "\"inet.visualizer.canvas.environment.PhysicalEnvironmentCanvasVisualizer\""
par ModbusTest1.visualizer.physicalEnvironmentVisualizer visualizationTargetModule "\"^.^\""
par ModbusTest1.visualizer.physicalEnvironmentVisualizer visualizationSubjectModule "\"^.^\""
par ModbusTest1.visualizer.physicalEnvironmentVisualizer tags "\"\""
par ModbusTest1.visualizer.physicalEnvironmentVisualizer physicalEnvironmentModule "\"physicalEnvironment\""
par ModbusTest1.visualizer.physicalEnvironmentVisualizer displayObjects true
par ModbusTest1.visualizer.physicalEnvironmentVisualizer zIndex 0
par ModbusTest1.visualizer.networkNodeVisualizer typename "\"inet.visualizer.canvas.scene.NetworkNodeCanvasVisualizer\""
par ModbusTest1.visualizer.networkNodeVisualizer visualizationTargetModule "\"^.^\""
par ModbusTest1.visualizer.networkNodeVisualizer visualizationSubjectModule "\"^.^\""
par ModbusTest1.visualizer.networkNodeVisualizer tags "\"\""
par ModbusTest1.visualizer.networkNodeVisualizer nodeFilter "\"*\""
attr mutable ""
par ModbusTest1.visualizer.networkNodeVisualizer annotationSpacing 4
par ModbusTest1.visualizer.networkNodeVisualizer placementPenalty 10
par ModbusTest1.visualizer.networkNodeVisualizer zIndex 0
par ModbusTest1.visualizer.networkConnectionVisualizer typename "\"inet.visualizer.canvas.scene.NetworkConnectionCanvasVisualizer\""
par ModbusTest1.visualizer.networkConnectionVisualizer visualizationTargetModule "\"^.^\""
par ModbusTest1.visualizer.networkConnectionVisualizer visualizationSubjectModule "\"^.^\""
par ModbusTest1.visualizer.networkConnectionVisualizer tags "\"\""
par ModbusTest1.visualizer.networkConnectionVisualizer displayNetworkConnections true
par ModbusTest1.visualizer.networkConnectionVisualizer nodeFilter "\"\""
attr mutable ""
par ModbusTest1.visualizer.networkConnectionVisualizer lineColor "\"black\""
par ModbusTest1.visualizer.networkConnectionVisualizer lineStyle "\"solid\""
par ModbusTest1.visualizer.networkConnectionVisualizer lineWidth 1
par ModbusTest1.visualizer.networkConnectionVisualizer zIndex 0
par ModbusTest1.visualizer.mobilityVisualizer typename "\"inet.visualizer.canvas.mobility.MobilityCanvasVisualizer\""
par ModbusTest1.visualizer.mobilityVisualizer visualizationTargetModule "\"^.^\""
par ModbusTest1.visualizer.mobilityVisualizer visualizationSubjectModule "\"^.^\""
par ModbusTest1.visualizer.mobilityVisualizer tags "\"\""
par ModbusTest1.visualizer.mobilityVisualizer networkNodeVisualizerModule "\"^.networkNodeVisualizer\""
par ModbusTest1.visualizer.mobilityVisualizer displayMobility true
par ModbusTest1.visualizer.mobilityVisualizer animationSpeed 0
par ModbusTest1.visualizer.mobilityVisualizer moduleFilter "\"**.mobility\""
attr mutable ""
par ModbusTest1.visualizer.mobilityVisualizer displayPositions false
par ModbusTest1.visualizer.mobilityVisualizer positionCircleRadius 4
par ModbusTest1.visualizer.mobilityVisualizer positionCircleLineWidth 1
par ModbusTest1.visualizer.mobilityVisualizer positionCircleLineColor "\"dark\""
par ModbusTest1.visualizer.mobilityVisualizer positionCircleFillColor "\"dark\""
par ModbusTest1.visualizer.mobilityVisualizer displayOrientations false
par ModbusTest1.visualizer.mobilityVisualizer orientationPieRadius 32
par ModbusTest1.visualizer.mobilityVisualizer orientationPieSize 0.2
par ModbusTest1.visualizer.mobilityVisualizer orientationPieOpacity 0.25
par ModbusTest1.visualizer.mobilityVisualizer orientationLineColor "\"black\""
par ModbusTest1.visualizer.mobilityVisualizer orientationLineStyle "\"solid\""
par ModbusTest1.visualizer.mobilityVisualizer orientationLineWidth 1
par ModbusTest1.visualizer.mobilityVisualizer orientationFillColor "\"blue\""
par ModbusTest1.visualizer.mobilityVisualizer displayVelocities false
par ModbusTest1.visualizer.mobilityVisualizer velocityArrowScale 1
par ModbusTest1.visualizer.mobilityVisualizer velocityLineColor "\"black\""
par ModbusTest1.visualizer.mobilityVisualizer velocityLineStyle "\"solid\""
par ModbusTest1.visualizer.mobilityVisualizer velocityLineWidth 1
par ModbusTest1.visualizer.mobilityVisualizer displayMovementTrails false
par ModbusTest1.visualizer.mobilityVisualizer movementTrailLineColor "\"dark\""
par ModbusTest1.visualizer.mobilityVisualizer movementTrailLineStyle "\"solid\""
par ModbusTest1.visualizer.mobilityVisualizer movementTrailLineWidth 1
par ModbusTest1.visualizer.mobilityVisualizer trailLength 100
par ModbusTest1.visualizer.mobilityVisualizer zIndex 0
par ModbusTest1.visualizer.statisticVisualizer typename "\"inet.visualizer.canvas.common.StatisticCanvasVisualizer\""
par ModbusTest1.visualizer.statisticVisualizer visualizationTargetModule "\"^.^\""
par ModbusTest1.visualizer.statisticVisualizer visualizationSubjectModule "\"^.^\""
par ModbusTest1.visualizer.statisticVisualizer tags "\"\""
par ModbusTest1.visualizer.statisticVisualizer networkNodeVisualizerModule "\"^.networkNodeVisualizer\""
par ModbusTest1.visualizer.statisticVisualizer displayStatistics true
par ModbusTest1.visualizer.statisticVisualizer signalName "\"\""
par ModbusTest1.visualizer.statisticVisualizer statisticName "\"\""
par ModbusTest1.visualizer.statisticVisualizer statisticUnit "\"\""
par ModbusTest1.visualizer.statisticVisualizer statisticExpression "\"\""
par ModbusTest1.visualizer.statisticVisualizer sourceFilter "\"**\""
attr mutable ""
par ModbusTest1.visualizer.statisticVisualizer format "\"%n: %v %u\""
attr mutable ""
par ModbusTest1.visualizer.statisticVisualizer unit "\"\""
par ModbusTest1.visualizer.statisticVisualizer font "\"<default>\""
par ModbusTest1.visualizer.statisticVisualizer textColor "\"black\""
par ModbusTest1.visualizer.statisticVisualizer backgroundColor "\"white\""
par ModbusTest1.visualizer.statisticVisualizer opacity 1
par ModbusTest1.visualizer.statisticVisualizer placementHint "\"top\""
par ModbusTest1.visualizer.statisticVisualizer placementPriority 0
par ModbusTest1.visualizer.statisticVisualizer zIndex 10
par ModbusTest1.visualizer.statisticVisualizer propertyName "\"\""
par ModbusTest1.visualizer.statisticVisualizer propertyIndex "\"\""
par ModbusTest1.visualizer.infoVisualizer typename "\"inet.visualizer.canvas.common.InfoCanvasVisualizer\""
par ModbusTest1.visualizer.infoVisualizer visualizationTargetModule "\"^.^\""
par ModbusTest1.visualizer.infoVisualizer visualizationSubjectModule "\"^.^\""
par ModbusTest1.visualizer.infoVisualizer tags "\"\""
par ModbusTest1.visualizer.infoVisualizer networkNodeVisualizerModule "\"^.networkNodeVisualizer\""
par ModbusTest1.visualizer.infoVisualizer displayInfos true
par ModbusTest1.visualizer.infoVisualizer modules "\"\""
attr mutable ""
par ModbusTest1.visualizer.infoVisualizer format "\"%t\""
attr mutable ""
par ModbusTest1.visualizer.infoVisualizer font "\"<default>\""
par ModbusTest1.visualizer.infoVisualizer textColor "\"black\""
par ModbusTest1.visualizer.infoVisualizer backgroundColor "\"white\""
par ModbusTest1.visualizer.infoVisualizer opacity 1
par ModbusTest1.visualizer.infoVisualizer placementHint "\"top\""
par ModbusTest1.visualizer.infoVisualizer placementPriority 0
par ModbusTest1.visualizer.infoVisualizer zIndex 10
par ModbusTest1.visualizer.energyStorageVisualizer typename "\"inet.visualizer.canvas.power.EnergyStorageCanvasVisualizer\""
par ModbusTest1.visualizer.energyStorageVisualizer visualizationTargetModule "\"^.^\""
par ModbusTest1.visualizer.energyStorageVisualizer visualizationSubjectModule "\"^.^\""
par ModbusTest1.visualizer.energyStorageVisualizer tags "\"\""
par ModbusTest1.visualizer.energyStorageVisualizer networkNodeVisualizerModule "\"^.networkNodeVisualizer\""
par ModbusTest1.visualizer.energyStorageVisualizer displayEnergyStorages false
par ModbusTest1.visualizer.energyStorageVisualizer energyStorageFilter "\"**\""
par ModbusTest1.visualizer.energyStorageVisualizer color "\"green\""
par ModbusTest1.visualizer.energyStorageVisualizer width 8
par ModbusTest1.visualizer.energyStorageVisualizer height 24
par ModbusTest1.visualizer.energyStorageVisualizer spacing 2
par ModbusTest1.visualizer.energyStorageVisualizer placementHint "\"right\""
par ModbusTest1.visualizer.energyStorageVisualizer placementPriority 0
par ModbusTest1.visualizer.energyStorageVisualizer zIndex 10
par ModbusTest1.visualizer.mediumVisualizer typename "\"inet.visualizer.canvas.physicallayer.MediumCanvasVisualizer\""
par ModbusTest1.visualizer.mediumVisualizer visualizationTargetModule "\"^.^\""
par ModbusTest1.visualizer.mediumVisualizer visualizationSubjectModule "\"^.^\""
par ModbusTest1.visualizer.mediumVisualizer tags "\"\""
par ModbusTest1.visualizer.mediumVisualizer mediumModule "\"radioMedium\""
par ModbusTest1.visualizer.mediumVisualizer networkNodeVisualizerModule "\"^.networkNodeVisualizer\""
par ModbusTest1.visualizer.mediumVisualizer nodeFilter "\"*\""
attr mutable ""
par ModbusTest1.visualizer.mediumVisualizer interfaceFilter "\"*\""
attr mutable ""
par ModbusTest1.visualizer.mediumVisualizer packetFilter "(omnetpp::cValueHolder)holder: \"*\""
attr mutable ""
par ModbusTest1.visualizer.mediumVisualizer displaySignals false
par ModbusTest1.visualizer.mediumVisualizer signalColor "\"dark\""
par ModbusTest1.visualizer.mediumVisualizer signalPropagationAnimationSpeed "nan "
attr mutable ""
par ModbusTest1.visualizer.mediumVisualizer signalPropagationAnimationTime 1s
attr unit s
par ModbusTest1.visualizer.mediumVisualizer signalPropagationAdditionalTime 0s
attr unit s
par ModbusTest1.visualizer.mediumVisualizer signalTransmissionAnimationSpeed "nan "
attr mutable ""
par ModbusTest1.visualizer.mediumVisualizer signalTransmissionAnimationTime 1s
attr unit s
par ModbusTest1.visualizer.mediumVisualizer signalAnimationSpeedChangeTimeMode "\"realTime\""
attr enum realTime,animationTime,simulationTime
par ModbusTest1.visualizer.mediumVisualizer signalAnimationSpeedChangeTime 1s
attr unit s
par ModbusTest1.visualizer.mediumVisualizer displaySignalDepartures false
par ModbusTest1.visualizer.mediumVisualizer signalDepartureImage "\"misc/signal_departure.png\""
par ModbusTest1.visualizer.mediumVisualizer signalDeparturePlacementHint "\"topCenter\""
par ModbusTest1.visualizer.mediumVisualizer signalDeparturePlacementPriority 1
par ModbusTest1.visualizer.mediumVisualizer displaySignalArrivals false
par ModbusTest1.visualizer.mediumVisualizer signalArrivalImage "\"misc/signal_arrival.png\""
par ModbusTest1.visualizer.mediumVisualizer signalArrivalPlacementHint "\"topCenter\""
par ModbusTest1.visualizer.mediumVisualizer signalArrivalPlacementPriority -1
par ModbusTest1.visualizer.mediumVisualizer displayCommunicationRanges false
par ModbusTest1.visualizer.mediumVisualizer communicationRangeLineColor "\"blue\""
par ModbusTest1.visualizer.mediumVisualizer communicationRangeLineStyle "\"solid\""
par ModbusTest1.visualizer.mediumVisualizer communicationRangeLineWidth 1
par ModbusTest1.visualizer.mediumVisualizer displayInterferenceRanges false
par ModbusTest1.visualizer.mediumVisualizer interferenceRangeLineColor "\"gray\""
par ModbusTest1.visualizer.mediumVisualizer interferenceRangeLineStyle "\"solid\""
par ModbusTest1.visualizer.mediumVisualizer interferenceRangeLineWidth 1
par ModbusTest1.visualizer.mediumVisualizer autoPowerAxis true
par ModbusTest1.visualizer.mediumVisualizer signalMinPower "inf dBmW"
attr unit dBmW
par ModbusTest1.visualizer.mediumVisualizer signalMaxPower 0dBmW
attr unit dBmW
par ModbusTest1.visualizer.mediumVisualizer signalMinPowerDensity "inf dBmWpMHz"
attr unit dBmWpMHz
par ModbusTest1.visualizer.mediumVisualizer signalMaxPowerDensity "-inf dBmWpMHz"
attr unit dBmWpMHz
par ModbusTest1.visualizer.mediumVisualizer autoTimeAxis true
par ModbusTest1.visualizer.mediumVisualizer signalMinTime 0s
attr unit s
par ModbusTest1.visualizer.mediumVisualizer signalMaxTime 0s
attr unit s
par ModbusTest1.visualizer.mediumVisualizer autoFrequencyAxis true
par ModbusTest1.visualizer.mediumVisualizer signalMinFrequency "inf Hz"
attr unit Hz
par ModbusTest1.visualizer.mediumVisualizer signalMaxFrequency "-inf Hz"
attr unit Hz
par ModbusTest1.visualizer.mediumVisualizer displayMainPowerDensityMap false
par ModbusTest1.visualizer.mediumVisualizer mainPowerDensityMapPixmapDensity 1
par ModbusTest1.visualizer.mediumVisualizer mainPowerDensityMapMinX 0
par ModbusTest1.visualizer.mediumVisualizer mainPowerDensityMapMaxX "nan "
par ModbusTest1.visualizer.mediumVisualizer mainPowerDensityMapMinY 0
par ModbusTest1.visualizer.mediumVisualizer mainPowerDensityMapMaxY "nan "
par ModbusTest1.visualizer.mediumVisualizer mainPowerDensityMapZ 0
par ModbusTest1.visualizer.mediumVisualizer mainPowerDensityMapFigureXTickCount 3
par ModbusTest1.visualizer.mediumVisualizer mainPowerDensityMapFigureYTickCount 3
par ModbusTest1.visualizer.mediumVisualizer displayPowerDensityMaps false
par ModbusTest1.visualizer.mediumVisualizer powerDensityMapMode "\"auto\""
attr enum total,signal,auto
par ModbusTest1.visualizer.mediumVisualizer powerDensityMapPixelMode "\"mean\""
attr enum sample,partition,mean
par ModbusTest1.visualizer.mediumVisualizer powerDensityMapApproximationSize 10
par ModbusTest1.visualizer.mediumVisualizer powerDensityMapCenterFrequency "nan Hz"
attr mutable ""
attr unit Hz
par ModbusTest1.visualizer.mediumVisualizer powerDensityMapBandwidth 0Hz
attr mutable ""
attr unit Hz
par ModbusTest1.visualizer.mediumVisualizer powerDensityMapFigureWidth 200
par ModbusTest1.visualizer.mediumVisualizer powerDensityMapFigureHeight 120
par ModbusTest1.visualizer.mediumVisualizer powerDensityMapPixmapWidth 200
par ModbusTest1.visualizer.mediumVisualizer powerDensityMapPixmapHeight 120
par ModbusTest1.visualizer.mediumVisualizer powerDensityMapZ 0
par ModbusTest1.visualizer.mediumVisualizer powerDensityMapFigureXTickCount 3
par ModbusTest1.visualizer.mediumVisualizer powerDensityMapFigureYTickCount 3
par ModbusTest1.visualizer.mediumVisualizer displaySpectrums false
par ModbusTest1.visualizer.mediumVisualizer spectrumMode "\"auto\""
attr enum total,signal,auto
par ModbusTest1.visualizer.mediumVisualizer spectrumFigureWidth 200
par ModbusTest1.visualizer.mediumVisualizer spectrumFigureHeight 120
par ModbusTest1.visualizer.mediumVisualizer spectrumFigureXTickCount 3
par ModbusTest1.visualizer.mediumVisualizer spectrumFigureYTickCount 5
par ModbusTest1.visualizer.mediumVisualizer spectrumFigureInterpolationSize 5
par ModbusTest1.visualizer.mediumVisualizer spectrumPlacementHint "\"bottomCenter\""
par ModbusTest1.visualizer.mediumVisualizer spectrumPlacementPriority -1
par ModbusTest1.visualizer.mediumVisualizer displaySpectrograms false
par ModbusTest1.visualizer.mediumVisualizer spectrogramMode "\"auto\""
attr enum total,signal,auto
par ModbusTest1.visualizer.mediumVisualizer spectrogramPixelMode "\"mean\""
attr enum sample,partition,mean
par ModbusTest1.visualizer.mediumVisualizer spectrogramFigureWidth 200
par ModbusTest1.visualizer.mediumVisualizer spectrogramFigureHeight 120
par ModbusTest1.visualizer.mediumVisualizer spectrogramPixmapWidth 200
par ModbusTest1.visualizer.mediumVisualizer spectrogramPixmapHeight 120
par ModbusTest1.visualizer.mediumVisualizer spectrogramFigureXTickCount 3
par ModbusTest1.visualizer.mediumVisualizer spectrogramFigureYTickCount 5
par ModbusTest1.visualizer.mediumVisualizer spectrogramPlacementHint "\"bottomCenter\""
par ModbusTest1.visualizer.mediumVisualizer spectrogramPlacementPriority -1
par ModbusTest1.visualizer.mediumVisualizer zIndex 0
par ModbusTest1.visualizer.mediumVisualizer signalShape "\"ring\""
attr enum ring,sphere
par ModbusTest1.visualizer.mediumVisualizer signalOpacity 0.5
par ModbusTest1.visualizer.mediumVisualizer signalRingCount 20
par ModbusTest1.visualizer.mediumVisualizer signalRingSize 50m
attr unit m
par ModbusTest1.visualizer.mediumVisualizer signalFadingDistance 50m
attr unit m
par ModbusTest1.visualizer.mediumVisualizer signalFadingFactor 1.2
par ModbusTest1.visualizer.mediumVisualizer signalWaveCount 20
par ModbusTest1.visualizer.mediumVisualizer signalWaveLength 50m
attr unit m
par ModbusTest1.visualizer.mediumVisualizer signalWaveWidth 10m
attr unit m
par ModbusTest1.visualizer.mediumVisualizer signalWaveFadingAnimationSpeedFactor 1
par ModbusTest1.visualizer.mediumVisualizer displayCommunicationHeat false
par ModbusTest1.visualizer.obstacleLossVisualizer typename "\"inet.visualizer.canvas.physicallayer.TracingObstacleLossCanvasVisualizer\""
par ModbusTest1.visualizer.obstacleLossVisualizer visualizationTargetModule "\"^.^\""
par ModbusTest1.visualizer.obstacleLossVisualizer visualizationSubjectModule "\"^.^\""
par ModbusTest1.visualizer.obstacleLossVisualizer tags "\"\""
par ModbusTest1.visualizer.obstacleLossVisualizer displayIntersections false
par ModbusTest1.visualizer.obstacleLossVisualizer intersectionLineColor "\"red\""
par ModbusTest1.visualizer.obstacleLossVisualizer intersectionLineStyle "\"solid\""
par ModbusTest1.visualizer.obstacleLossVisualizer intersectionLineWidth 1
par ModbusTest1.visualizer.obstacleLossVisualizer displayFaceNormalVectors false
par ModbusTest1.visualizer.obstacleLossVisualizer faceNormalLineColor "\"grey\""
par ModbusTest1.visualizer.obstacleLossVisualizer faceNormalLineStyle "\"solid\""
par ModbusTest1.visualizer.obstacleLossVisualizer faceNormalLineWidth 1
par ModbusTest1.visualizer.obstacleLossVisualizer fadeOutMode "\"realTime\""
attr enum realTime,animationTime,simulationTime
par ModbusTest1.visualizer.obstacleLossVisualizer fadeOutTime 1s
attr unit s
par ModbusTest1.visualizer.obstacleLossVisualizer fadeOutAnimationSpeed 0
par ModbusTest1.visualizer.obstacleLossVisualizer zIndex 0
par ModbusTest1.visualizer.packetDropVisualizer typename "\"inet.visualizer.canvas.common.PacketDropCanvasVisualizer\""
par ModbusTest1.visualizer.packetDropVisualizer visualizationTargetModule "\"^.^\""
par ModbusTest1.visualizer.packetDropVisualizer visualizationSubjectModule "\"^.^\""
par ModbusTest1.visualizer.packetDropVisualizer tags "\"\""
par ModbusTest1.visualizer.packetDropVisualizer displayPacketDrops false
par ModbusTest1.visualizer.packetDropVisualizer nodeFilter "\"*\""
attr mutable ""
par ModbusTest1.visualizer.packetDropVisualizer interfaceFilter "\"*\""
attr mutable ""
par ModbusTest1.visualizer.packetDropVisualizer packetFilter "(omnetpp::cValueHolder)holder: \"*\""
attr mutable ""
par ModbusTest1.visualizer.packetDropVisualizer detailsFilter "\"*\""
attr mutable ""
par ModbusTest1.visualizer.packetDropVisualizer icon "\"msg/packet_s\""
par ModbusTest1.visualizer.packetDropVisualizer iconTintAmount 1
par ModbusTest1.visualizer.packetDropVisualizer iconTintColor "\"dark\""
par ModbusTest1.visualizer.packetDropVisualizer labelFormat "\"%n\""
attr mutable ""
par ModbusTest1.visualizer.packetDropVisualizer labelFont "\"<default>\""
par ModbusTest1.visualizer.packetDropVisualizer labelColor "\"black\""
par ModbusTest1.visualizer.packetDropVisualizer fadeOutMode "\"realTime\""
attr enum realTime,animationTime,simulationTime
par ModbusTest1.visualizer.packetDropVisualizer fadeOutTime 1s
attr unit s
par ModbusTest1.visualizer.packetDropVisualizer fadeOutAnimationSpeed 0
par ModbusTest1.visualizer.packetDropVisualizer zIndex 10
par ModbusTest1.visualizer.packetDropVisualizer dx 32
par ModbusTest1.visualizer.packetDropVisualizer dy 64
par ModbusTest1.visualizer.packetFlowVisualizer typename "\"inet.visualizer.canvas.flow.PacketFlowCanvasVisualizer\""
par ModbusTest1.visualizer.packetFlowVisualizer visualizationTargetModule "\"^.^\""
par ModbusTest1.visualizer.packetFlowVisualizer visualizationSubjectModule "\"^.^\""
par ModbusTest1.visualizer.packetFlowVisualizer tags "\"\""
par ModbusTest1.visualizer.packetFlowVisualizer displayRoutes false
par ModbusTest1.visualizer.packetFlowVisualizer startPathSignal "\"packetFlowStarted\""
par ModbusTest1.visualizer.packetFlowVisualizer extendPathSignal "\"packetReceivedFromLower\""
par ModbusTest1.visualizer.packetFlowVisualizer endPathSignal "\"packetFlowEnded\""
par ModbusTest1.visualizer.packetFlowVisualizer nodeFilter "\"*\""
attr mutable ""
par ModbusTest1.visualizer.packetFlowVisualizer packetFilter "(omnetpp::cValueHolder)holder: \"*\""
attr mutable ""
par ModbusTest1.visualizer.packetFlowVisualizer lineColor "\"dark\""
par ModbusTest1.visualizer.packetFlowVisualizer lineStyle "\"dashed\""
par ModbusTest1.visualizer.packetFlowVisualizer lineWidth 3
par ModbusTest1.visualizer.packetFlowVisualizer lineSmooth false
par ModbusTest1.visualizer.packetFlowVisualizer lineShift 16
par ModbusTest1.visualizer.packetFlowVisualizer lineShiftMode "\"normal\""
par ModbusTest1.visualizer.packetFlowVisualizer lineContactSpacing 3
par ModbusTest1.visualizer.packetFlowVisualizer lineContactMode "\"rectangular\""
attr enum circular,rectangular
par ModbusTest1.visualizer.packetFlowVisualizer labelFormat "\"%L %p pk (%l)\""
par ModbusTest1.visualizer.packetFlowVisualizer labelFont "\"<default>, 8px\""
par ModbusTest1.visualizer.packetFlowVisualizer labelColor "\"\""
par ModbusTest1.visualizer.packetFlowVisualizer fadeOutMode "\"realTime\""
attr enum realTime,animationTime,simulationTime
par ModbusTest1.visualizer.packetFlowVisualizer fadeOutTime 0s
attr unit s
par ModbusTest1.visualizer.packetFlowVisualizer fadeOutAnimationSpeed 0
par ModbusTest1.visualizer.packetFlowVisualizer zIndex 4
par ModbusTest1.visualizer.queueVisualizer typename "\"inet.visualizer.canvas.common.QueueCanvasVisualizer\""
par ModbusTest1.visualizer.queueVisualizer visualizationTargetModule "\"^.^\""
par ModbusTest1.visualizer.queueVisualizer visualizationSubjectModule "\"^.^\""
par ModbusTest1.visualizer.queueVisualizer tags "\"\""
par ModbusTest1.visualizer.queueVisualizer networkNodeVisualizerModule "\"^.networkNodeVisualizer\""
par ModbusTest1.visualizer.queueVisualizer displayQueues false
par ModbusTest1.visualizer.queueVisualizer queueFilter "\"**\""
par ModbusTest1.visualizer.queueVisualizer color "\"blue\""
par ModbusTest1.visualizer.queueVisualizer width 8
par ModbusTest1.visualizer.queueVisualizer height 24
par ModbusTest1.visualizer.queueVisualizer spacing 2
par ModbusTest1.visualizer.queueVisualizer placementHint "\"right\""
par ModbusTest1.visualizer.queueVisualizer placementPriority 0
par ModbusTest1.visualizer.queueVisualizer zIndex 10
par ModbusTest1.visualizer.gateScheduleVisualizer typename "\"inet.visualizer.canvas.common.GateScheduleCanvasVisualizer\""
par ModbusTest1.visualizer.gateScheduleVisualizer visualizationTargetModule "\"^.^\""
par ModbusTest1.visualizer.gateScheduleVisualizer visualizationSubjectModule "\"^.^\""
par ModbusTest1.visualizer.gateScheduleVisualizer tags "\"\""
par ModbusTest1.visualizer.gateScheduleVisualizer networkNodeVisualizerModule "\"^.networkNodeVisualizer\""
par ModbusTest1.visualizer.gateScheduleVisualizer displayGateSchedules false
par ModbusTest1.visualizer.gateScheduleVisualizer labelFormat "\"%i %D\""
par ModbusTest1.visualizer.gateScheduleVisualizer gateFilter "\"**\""
par ModbusTest1.visualizer.gateScheduleVisualizer width 100
par ModbusTest1.visualizer.gateScheduleVisualizer height 8
par ModbusTest1.visualizer.gateScheduleVisualizer spacing 2
par ModbusTest1.visualizer.gateScheduleVisualizer placementHint "\"right\""
par ModbusTest1.visualizer.gateScheduleVisualizer placementPriority 0
par ModbusTest1.visualizer.gateScheduleVisualizer displayDuration 0s
attr mutable ""
attr unit s
par ModbusTest1.visualizer.gateScheduleVisualizer currentTimePosition 50
par ModbusTest1.visualizer.gateScheduleVisualizer zIndex 10
par ModbusTest1.visualizer.radioVisualizer typename "\"inet.visualizer.canvas.physicallayer.RadioCanvasVisualizer\""
par ModbusTest1.visualizer.radioVisualizer visualizationTargetModule "\"^.^\""
par ModbusTest1.visualizer.radioVisualizer visualizationSubjectModule "\"^.^\""
par ModbusTest1.visualizer.radioVisualizer tags "\"\""
par ModbusTest1.visualizer.radioVisualizer networkNodeVisualizerModule "\"^.networkNodeVisualizer\""
par ModbusTest1.visualizer.radioVisualizer displayRadios false
par ModbusTest1.visualizer.radioVisualizer displayRadioMode true
par ModbusTest1.visualizer.radioVisualizer displayReceptionState true
par ModbusTest1.visualizer.radioVisualizer displayTransmissionState true
par ModbusTest1.visualizer.radioVisualizer displayAntennaLobes false
par ModbusTest1.visualizer.radioVisualizer radioFilter "\"**\""
attr mutable ""
par ModbusTest1.visualizer.radioVisualizer radioModeImages "\"block/process_vs block/timer_vs block/wrx_vs block/wtx_vs block/wrxtx_vs block/cogwheel_vs\""
par ModbusTest1.visualizer.radioVisualizer receptionStateImages "\"- - misc/receiving misc/receiving\""
par ModbusTest1.visualizer.radioVisualizer transmissionStateImages "\"- - misc/transmitting\""
par ModbusTest1.visualizer.radioVisualizer width 16
par ModbusTest1.visualizer.radioVisualizer height 16
par ModbusTest1.visualizer.radioVisualizer placementHint "\"bottomRight\""
par ModbusTest1.visualizer.radioVisualizer placementPriority 0
par ModbusTest1.visualizer.radioVisualizer antennaLobeNormalize false
par ModbusTest1.visualizer.radioVisualizer antennaLobeRelativeLabels false
par ModbusTest1.visualizer.radioVisualizer antennaLobePlaneGlobal true
par ModbusTest1.visualizer.radioVisualizer antennaLobePlane "\"view\""
attr enum view,xy,xz,yz
par ModbusTest1.visualizer.radioVisualizer antennaLobeMode "\"logarithmic\""
attr enum logarithmic,linear
par ModbusTest1.visualizer.radioVisualizer antennaLobeLogarithmicBase 10
par ModbusTest1.visualizer.radioVisualizer antennaLobeLogarithmicScale 100
par ModbusTest1.visualizer.radioVisualizer antennaLobeRadius 100
par ModbusTest1.visualizer.radioVisualizer antennaLobeStep 10deg
attr unit deg
par ModbusTest1.visualizer.radioVisualizer antennaLobeOpacity 0.25
par ModbusTest1.visualizer.radioVisualizer antennaLobeLineSmooth true
par ModbusTest1.visualizer.radioVisualizer antennaLobeLineColor "\"black\""
par ModbusTest1.visualizer.radioVisualizer antennaLobeLineStyle "\"solid\""
par ModbusTest1.visualizer.radioVisualizer antennaLobeLineWidth 1
par ModbusTest1.visualizer.radioVisualizer antennaLobeFillColor "\"white\""
par ModbusTest1.visualizer.radioVisualizer zIndex 10
par ModbusTest1.visualizer.physicalLinkVisualizer typename "\"inet.visualizer.canvas.physicallayer.PhysicalLinkCanvasVisualizer\""
par ModbusTest1.visualizer.physicalLinkVisualizer visualizationTargetModule "\"^.^\""
par ModbusTest1.visualizer.physicalLinkVisualizer visualizationSubjectModule "\"^.^\""
par ModbusTest1.visualizer.physicalLinkVisualizer tags "\"\""
par ModbusTest1.visualizer.physicalLinkVisualizer displayLinks false
par ModbusTest1.visualizer.physicalLinkVisualizer activityLevel "\"service\""
attr enum service,peer,protocol
par ModbusTest1.visualizer.physicalLinkVisualizer nodeFilter "\"*\""
attr mutable ""
par ModbusTest1.visualizer.physicalLinkVisualizer interfaceFilter "\"*\""
attr mutable ""
par ModbusTest1.visualizer.physicalLinkVisualizer packetFilter "(omnetpp::cValueHolder)holder: \"*\""
attr mutable ""
par ModbusTest1.visualizer.physicalLinkVisualizer lineColor "\"olive\""
par ModbusTest1.visualizer.physicalLinkVisualizer lineStyle "\"dotted\""
par ModbusTest1.visualizer.physicalLinkVisualizer lineWidth 3
par ModbusTest1.visualizer.physicalLinkVisualizer lineShift 16
par ModbusTest1.visualizer.physicalLinkVisualizer lineShiftMode "\"normal\""
par ModbusTest1.visualizer.physicalLinkVisualizer lineContactSpacing 3
par ModbusTest1.visualizer.physicalLinkVisualizer lineContactMode "\"rectangular\""
attr enum circular,rectangular
par ModbusTest1.visualizer.physicalLinkVisualizer labelFormat "\"%n\""
par ModbusTest1.visualizer.physicalLinkVisualizer labelFont "\"<default>, 8px\""
par ModbusTest1.visualizer.physicalLinkVisualizer labelColor "\"olive\""
par ModbusTest1.visualizer.physicalLinkVisualizer fadeOutMode "\"realTime\""
attr enum realTime,animationTime,simulationTime
par ModbusTest1.visualizer.physicalLinkVisualizer fadeOutTime 1s
attr unit s
par ModbusTest1.visualizer.physicalLinkVisualizer fadeOutAnimationSpeed 0
par ModbusTest1.visualizer.physicalLinkVisualizer holdAnimationTime 0s
attr unit s
par ModbusTest1.visualizer.physicalLinkVisualizer zIndex 1
par ModbusTest1.visualizer.interfaceTableVisualizer typename "\"inet.visualizer.canvas.linklayer.InterfaceTableCanvasVisualizer\""
par ModbusTest1.visualizer.interfaceTableVisualizer visualizationTargetModule "\"^.^\""
par ModbusTest1.visualizer.interfaceTableVisualizer visualizationSubjectModule "\"^.^\""
par ModbusTest1.visualizer.interfaceTableVisualizer tags "\"\""
par ModbusTest1.visualizer.interfaceTableVisualizer networkNodeVisualizerModule "\"^.networkNodeVisualizer\""
par ModbusTest1.visualizer.interfaceTableVisualizer displayInterfaceTables true
par ModbusTest1.visualizer.interfaceTableVisualizer displayWiredInterfacesAtConnections true
par ModbusTest1.visualizer.interfaceTableVisualizer displayBackground false
par ModbusTest1.visualizer.interfaceTableVisualizer nodeFilter "\"*\""
attr mutable ""
par ModbusTest1.visualizer.interfaceTableVisualizer interfaceFilter "\"not(lo*)\""
attr mutable ""
par ModbusTest1.visualizer.interfaceTableVisualizer format "\"%N %\\\\%a%/%l\""
attr mutable ""
par ModbusTest1.visualizer.interfaceTableVisualizer placementHint "\"top\""
par ModbusTest1.visualizer.interfaceTableVisualizer placementPriority 0
par ModbusTest1.visualizer.interfaceTableVisualizer font "\"<default>\""
par ModbusTest1.visualizer.interfaceTableVisualizer textColor "\"#005030\""
par ModbusTest1.visualizer.interfaceTableVisualizer backgroundColor "\"white\""
par ModbusTest1.visualizer.interfaceTableVisualizer opacity 1
par ModbusTest1.visualizer.interfaceTableVisualizer zIndex 10
par ModbusTest1.visualizer.dataLinkVisualizer typename "\"inet.visualizer.canvas.linklayer.DataLinkCanvasVisualizer\""
par ModbusTest1.visualizer.dataLinkVisualizer visualizationTargetModule "\"^.^\""
par ModbusTest1.visualizer.dataLinkVisualizer visualizationSubjectModule "\"^.^\""
par ModbusTest1.visualizer.dataLinkVisualizer tags "\"\""
par ModbusTest1.visualizer.dataLinkVisualizer displayLinks false
par ModbusTest1.visualizer.dataLinkVisualizer activityLevel "\"service\""
attr enum service,peer,protocol
par ModbusTest1.visualizer.dataLinkVisualizer nodeFilter "\"*\""
attr mutable ""
par ModbusTest1.visualizer.dataLinkVisualizer interfaceFilter "\"*\""
attr mutable ""
par ModbusTest1.visualizer.dataLinkVisualizer packetFilter "(omnetpp::cValueHolder)holder: \"*\""
attr mutable ""
par ModbusTest1.visualizer.dataLinkVisualizer lineColor "\"darkcyan\""
par ModbusTest1.visualizer.dataLinkVisualizer lineStyle "\"solid\""
par ModbusTest1.visualizer.dataLinkVisualizer lineWidth 3
par ModbusTest1.visualizer.dataLinkVisualizer lineShift 16
par ModbusTest1.visualizer.dataLinkVisualizer lineShiftMode "\"normal\""
par ModbusTest1.visualizer.dataLinkVisualizer lineContactSpacing 3
par ModbusTest1.visualizer.dataLinkVisualizer lineContactMode "\"rectangular\""
attr enum circular,rectangular
par ModbusTest1.visualizer.dataLinkVisualizer labelFormat "\"%n\""
par ModbusTest1.visualizer.dataLinkVisualizer labelFont "\"<default>, 8px\""
par ModbusTest1.visualizer.dataLinkVisualizer labelColor "\"darkcyan\""
par ModbusTest1.visualizer.dataLinkVisualizer fadeOutMode "\"realTime\""
attr enum realTime,animationTime,simulationTime
par ModbusTest1.visualizer.dataLinkVisualizer fadeOutTime 1s
attr unit s
par ModbusTest1.visualizer.dataLinkVisualizer fadeOutAnimationSpeed 0
par ModbusTest1.visualizer.dataLinkVisualizer holdAnimationTime 0s
attr unit s
par ModbusTest1.visualizer.dataLinkVisualizer zIndex 2
par ModbusTest1.visualizer.linkBreakVisualizer typename "\"inet.visualizer.canvas.linklayer.LinkBreakCanvasVisualizer\""
par ModbusTest1.visualizer.linkBreakVisualizer visualizationTargetModule "\"^.^\""
par ModbusTest1.visualizer.linkBreakVisualizer visualizationSubjectModule "\"^.^\""
par ModbusTest1.visualizer.linkBreakVisualizer tags "\"\""
par ModbusTest1.visualizer.linkBreakVisualizer displayLinkBreaks false
par ModbusTest1.visualizer.linkBreakVisualizer nodeFilter "\"*\""
attr mutable ""
par ModbusTest1.visualizer.linkBreakVisualizer interfaceFilter "\"*\""
attr mutable ""
par ModbusTest1.visualizer.linkBreakVisualizer packetFilter "(omnetpp::cValueHolder)holder: \"*\""
attr mutable ""
par ModbusTest1.visualizer.linkBreakVisualizer icon "\"status/stop\""
par ModbusTest1.visualizer.linkBreakVisualizer iconTintAmount 0
par ModbusTest1.visualizer.linkBreakVisualizer iconTintColor "\"\""
par ModbusTest1.visualizer.linkBreakVisualizer fadeOutMode "\"realTime\""
attr enum realTime,animationTime,simulationTime
par ModbusTest1.visualizer.linkBreakVisualizer fadeOutTime 1s
attr unit s
par ModbusTest1.visualizer.linkBreakVisualizer fadeOutAnimationSpeed 0
par ModbusTest1.visualizer.linkBreakVisualizer zIndex 2
par ModbusTest1.visualizer.ieee80211Visualizer typename "\"inet.visualizer.canvas.linklayer.Ieee80211CanvasVisualizer\""
par ModbusTest1.visualizer.ieee80211Visualizer visualizationTargetModule "\"^.^\""
par ModbusTest1.visualizer.ieee80211Visualizer visualizationSubjectModule "\"^.^\""
par ModbusTest1.visualizer.ieee80211Visualizer tags "\"\""
par ModbusTest1.visualizer.ieee80211Visualizer networkNodeVisualizerModule "\"^.networkNodeVisualizer\""
par ModbusTest1.visualizer.ieee80211Visualizer displayAssociations false
par ModbusTest1.visualizer.ieee80211Visualizer nodeFilter "\"*\""
attr mutable ""
par ModbusTest1.visualizer.ieee80211Visualizer interfaceFilter "\"*\""
attr mutable ""
par ModbusTest1.visualizer.ieee80211Visualizer minPower -85dBm
attr unit dBm
par ModbusTest1.visualizer.ieee80211Visualizer maxPower -50dBm
attr unit dBm
par ModbusTest1.visualizer.ieee80211Visualizer icons "\"misc/signal_power_0 misc/signal_power_1 misc/signal_power_2 misc/signal_power_3\""
par ModbusTest1.visualizer.ieee80211Visualizer iconColor "\"dark\""
par ModbusTest1.visualizer.ieee80211Visualizer labelFont "\"<default>\""
par ModbusTest1.visualizer.ieee80211Visualizer labelColor "\"black\""
par ModbusTest1.visualizer.ieee80211Visualizer placementHint "\"top\""
par ModbusTest1.visualizer.ieee80211Visualizer placementPriority 0
par ModbusTest1.visualizer.ieee80211Visualizer zIndex 2
par ModbusTest1.visualizer.networkRouteVisualizer typename "\"inet.visualizer.canvas.networklayer.NetworkRouteCanvasVisualizer\""
par ModbusTest1.visualizer.networkRouteVisualizer visualizationTargetModule "\"^.^\""
par ModbusTest1.visualizer.networkRouteVisualizer visualizationSubjectModule "\"^.^\""
par ModbusTest1.visualizer.networkRouteVisualizer tags "\"\""
par ModbusTest1.visualizer.networkRouteVisualizer displayRoutes false
par ModbusTest1.visualizer.networkRouteVisualizer startPathSignal "\"packetReceivedFromUpper\""
par ModbusTest1.visualizer.networkRouteVisualizer extendPathSignal "\"packetReceivedFromLower\""
par ModbusTest1.visualizer.networkRouteVisualizer endPathSignal "\"packetSentToUpper\""
par ModbusTest1.visualizer.networkRouteVisualizer nodeFilter "\"*\""
attr mutable ""
par ModbusTest1.visualizer.networkRouteVisualizer packetFilter "(omnetpp::cValueHolder)holder: \"*\""
attr mutable ""
par ModbusTest1.visualizer.networkRouteVisualizer lineColor "\"dark\""
par ModbusTest1.visualizer.networkRouteVisualizer lineStyle "\"solid\""
par ModbusTest1.visualizer.networkRouteVisualizer lineWidth 3
par ModbusTest1.visualizer.networkRouteVisualizer lineSmooth false
par ModbusTest1.visualizer.networkRouteVisualizer lineShift 16
par ModbusTest1.visualizer.networkRouteVisualizer lineShiftMode "\"normal\""
par ModbusTest1.visualizer.networkRouteVisualizer lineContactSpacing 3
par ModbusTest1.visualizer.networkRouteVisualizer lineContactMode "\"rectangular\""
attr enum circular,rectangular
par ModbusTest1.visualizer.networkRouteVisualizer labelFormat "\"%n\""
par ModbusTest1.visualizer.networkRouteVisualizer labelFont "\"<default>, 8px\""
par ModbusTest1.visualizer.networkRouteVisualizer labelColor "\"\""
par ModbusTest1.visualizer.networkRouteVisualizer fadeOutMode "\"realTime\""
attr enum realTime,animationTime,simulationTime
par ModbusTest1.visualizer.networkRouteVisualizer fadeOutTime 1s
attr unit s
par ModbusTest1.visualizer.networkRouteVisualizer fadeOutAnimationSpeed 0
par ModbusTest1.visualizer.networkRouteVisualizer zIndex 3
par ModbusTest1.visualizer.routingTableVisualizer typename "\"inet.visualizer.canvas.networklayer.RoutingTableCanvasVisualizer\""
par ModbusTest1.visualizer.routingTableVisualizer visualizationTargetModule "\"^.^\""
par ModbusTest1.visualizer.routingTableVisualizer visualizationSubjectModule "\"^.^\""
par ModbusTest1.visualizer.routingTableVisualizer tags "\"\""
par ModbusTest1.visualizer.routingTableVisualizer displayRoutingTables false
par ModbusTest1.visualizer.routingTableVisualizer displayRoutesIndividually true
par ModbusTest1.visualizer.routingTableVisualizer displayLabels true
par ModbusTest1.visualizer.routingTableVisualizer destinationFilter "\"*\""
attr mutable ""
par ModbusTest1.visualizer.routingTableVisualizer nodeFilter "\"*\""
attr mutable ""
par ModbusTest1.visualizer.routingTableVisualizer lineColor "\"black\""
par ModbusTest1.visualizer.routingTableVisualizer lineStyle "\"solid\""
par ModbusTest1.visualizer.routingTableVisualizer lineWidth 2
par ModbusTest1.visualizer.routingTableVisualizer lineShift 16
par ModbusTest1.visualizer.routingTableVisualizer lineShiftMode "\"normal\""
par ModbusTest1.visualizer.routingTableVisualizer lineContactSpacing 3
par ModbusTest1.visualizer.routingTableVisualizer lineContactMode "\"rectangular\""
attr enum circular,rectangular
par ModbusTest1.visualizer.routingTableVisualizer labelFormat "\"%d/%m -> %g (%n)\""
attr mutable ""
par ModbusTest1.visualizer.routingTableVisualizer labelFont "\"<default>, 8px\""
par ModbusTest1.visualizer.routingTableVisualizer labelColor "\"black\""
par ModbusTest1.visualizer.routingTableVisualizer zIndex 0
par ModbusTest1.visualizer.transportRouteVisualizer typename "\"inet.visualizer.canvas.transportlayer.TransportRouteCanvasVisualizer\""
par ModbusTest1.visualizer.transportRouteVisualizer visualizationTargetModule "\"^.^\""
par ModbusTest1.visualizer.transportRouteVisualizer visualizationSubjectModule "\"^.^\""
par ModbusTest1.visualizer.transportRouteVisualizer tags "\"\""
par ModbusTest1.visualizer.transportRouteVisualizer displayRoutes false
par ModbusTest1.visualizer.transportRouteVisualizer startPathSignal "\"packetReceivedFromUpper\""
par ModbusTest1.visualizer.transportRouteVisualizer extendPathSignal "\"packetReceivedFromLower\""
par ModbusTest1.visualizer.transportRouteVisualizer endPathSignal "\"packetSentToUpper\""
par ModbusTest1.visualizer.transportRouteVisualizer nodeFilter "\"*\""
attr mutable ""
par ModbusTest1.visualizer.transportRouteVisualizer packetFilter "(omnetpp::cValueHolder)holder: \"*\""
attr mutable ""
par ModbusTest1.visualizer.transportRouteVisualizer lineColor "\"dark\""
par ModbusTest1.visualizer.transportRouteVisualizer lineStyle "\"solid\""
par ModbusTest1.visualizer.transportRouteVisualizer lineWidth 3
par ModbusTest1.visualizer.transportRouteVisualizer lineSmooth false
par ModbusTest1.visualizer.transportRouteVisualizer lineShift 16
par ModbusTest1.visualizer.transportRouteVisualizer lineShiftMode "\"normal\""
par ModbusTest1.visualizer.transportRouteVisualizer lineContactSpacing 3
par ModbusTest1.visualizer.transportRouteVisualizer lineContactMode "\"rectangular\""
attr enum circular,rectangular
par ModbusTest1.visualizer.transportRouteVisualizer labelFormat "\"%n\""
par ModbusTest1.visualizer.transportRouteVisualizer labelFont "\"<default>, 8px\""
par ModbusTest1.visualizer.transportRouteVisualizer labelColor "\"\""
par ModbusTest1.visualizer.transportRouteVisualizer fadeOutMode "\"realTime\""
attr enum realTime,animationTime,simulationTime
par ModbusTest1.visualizer.transportRouteVisualizer fadeOutTime 1s
attr unit s
par ModbusTest1.visualizer.transportRouteVisualizer fadeOutAnimationSpeed 0
par ModbusTest1.visualizer.transportRouteVisualizer zIndex 4
par ModbusTest1.visualizer.transportConnectionVisualizer typename "\"inet.visualizer.canvas.transportlayer.TransportConnectionCanvasVisualizer\""
par ModbusTest1.visualizer.transportConnectionVisualizer visualizationTargetModule "\"^.^\""
par ModbusTest1.visualizer.transportConnectionVisualizer visualizationSubjectModule "\"^.^\""
par ModbusTest1.visualizer.transportConnectionVisualizer tags "\"\""
par ModbusTest1.visualizer.transportConnectionVisualizer networkNodeVisualizerModule "\"^.networkNodeVisualizer\""
par ModbusTest1.visualizer.transportConnectionVisualizer displayTransportConnections false
par ModbusTest1.visualizer.transportConnectionVisualizer sourceNodeFilter "\"*\""
attr mutable ""
par ModbusTest1.visualizer.transportConnectionVisualizer sourcePortFilter "\"*\""
attr mutable ""
par ModbusTest1.visualizer.transportConnectionVisualizer destinationNodeFilter "\"*\""
attr mutable ""
par ModbusTest1.visualizer.transportConnectionVisualizer destinationPortFilter "\"*\""
attr mutable ""
par ModbusTest1.visualizer.transportConnectionVisualizer icon "\"misc/marker_s\""
par ModbusTest1.visualizer.transportConnectionVisualizer iconColor "\"dark\""
par ModbusTest1.visualizer.transportConnectionVisualizer labelFont "\"<default>\""
par ModbusTest1.visualizer.transportConnectionVisualizer labelColor "\"black\""
par ModbusTest1.visualizer.transportConnectionVisualizer placementHint "\"top\""
par ModbusTest1.visualizer.transportConnectionVisualizer placementPriority 0
par ModbusTest1.visualizer.transportConnectionVisualizer zIndex 4
par ModbusTest1.visualizer.failureProtectionConfigurationVisualizer typename "\"inet.visualizer.canvas.configurator.FailureProtectionConfigurationCanvasVisualizer\""
par ModbusTest1.visualizer.failureProtectionConfigurationVisualizer visualizationTargetModule "\"^.^\""
par ModbusTest1.visualizer.failureProtectionConfigurationVisualizer visualizationSubjectModule "\"^.^\""
par ModbusTest1.visualizer.failureProtectionConfigurationVisualizer tags "\"\""
par ModbusTest1.visualizer.failureProtectionConfigurationVisualizer displayTrees false
par ModbusTest1.visualizer.failureProtectionConfigurationVisualizer lineColor "\"dark\""
par ModbusTest1.visualizer.failureProtectionConfigurationVisualizer lineStyle "\"solid\""
par ModbusTest1.visualizer.failureProtectionConfigurationVisualizer lineWidth 3
par ModbusTest1.visualizer.failureProtectionConfigurationVisualizer lineSmooth false
par ModbusTest1.visualizer.failureProtectionConfigurationVisualizer lineShift 16
par ModbusTest1.visualizer.failureProtectionConfigurationVisualizer lineShiftMode "\"normal\""
par ModbusTest1.visualizer.failureProtectionConfigurationVisualizer lineContactSpacing 3
par ModbusTest1.visualizer.failureProtectionConfigurationVisualizer lineContactMode "\"rectangular\""
attr enum circular,rectangular
par ModbusTest1.visualizer.failureProtectionConfigurationVisualizer failureProtectionConfiguratorModule "\"failureProtectionConfigurator\""
par ModbusTest1.visualizer.failureProtectionConfigurationVisualizer streamFilter "\"*\""
par ModbusTest1.visualizer.failureProtectionConfigurationVisualizer zIndex 3
par ModbusTest1.visualizer.streamRedundancyConfigurationVisualizer typename "\"inet.visualizer.canvas.configurator.StreamRedundancyConfigurationCanvasVisualizer\""
par ModbusTest1.visualizer.streamRedundancyConfigurationVisualizer visualizationTargetModule "\"^.^\""
par ModbusTest1.visualizer.streamRedundancyConfigurationVisualizer visualizationSubjectModule "\"^.^\""
par ModbusTest1.visualizer.streamRedundancyConfigurationVisualizer tags "\"\""
par ModbusTest1.visualizer.streamRedundancyConfigurationVisualizer displayTrees false
par ModbusTest1.visualizer.streamRedundancyConfigurationVisualizer lineColor "\"dark\""
par ModbusTest1.visualizer.streamRedundancyConfigurationVisualizer lineStyle "\"solid\""
par ModbusTest1.visualizer.streamRedundancyConfigurationVisualizer lineWidth 3
par ModbusTest1.visualizer.streamRedundancyConfigurationVisualizer lineSmooth false
par ModbusTest1.visualizer.streamRedundancyConfigurationVisualizer lineShift 16
par ModbusTest1.visualizer.streamRedundancyConfigurationVisualizer lineShiftMode "\"normal\""
par ModbusTest1.visualizer.streamRedundancyConfigurationVisualizer lineContactSpacing 3
par ModbusTest1.visualizer.streamRedundancyConfigurationVisualizer lineContactMode "\"rectangular\""
attr enum circular,rectangular
par ModbusTest1.visualizer.streamRedundancyConfigurationVisualizer streamRedundancyConfiguratorModule "\"streamRedundancyConfigurator\""
par ModbusTest1.visualizer.streamRedundancyConfigurationVisualizer streamFilter "\"*\""
par ModbusTest1.visualizer.streamRedundancyConfigurationVisualizer zIndex 3
par ModbusTest1.visualizer typename "\"inet.visualizer.canvas.integrated.IntegratedCanvasVisualizer\""
par ModbusTest1.configurator typename "\"inet.networklayer.configurator.ipv4.Ipv4NetworkConfigurator\""
par ModbusTest1.configurator minLinkWeight 0.001
par ModbusTest1.configurator configureIsolatedNetworksSeparatly false
par ModbusTest1.configurator config "<config>...</config> at content:1"
par ModbusTest1.configurator assignAddresses true
par ModbusTest1.configurator assignUniqueAddresses true
par ModbusTest1.configurator assignDisjunctSubnetAddresses true
par ModbusTest1.configurator addStaticRoutes true
par ModbusTest1.configurator addDefaultRoutes true
par ModbusTest1.configurator addSubnetRoutes true
par ModbusTest1.configurator addDirectRoutes true
par ModbusTest1.configurator optimizeRoutes true
par ModbusTest1.configurator dumpTopology false
par ModbusTest1.configurator dumpLinks false
par ModbusTest1.configurator dumpAddresses false
par ModbusTest1.configurator dumpRoutes false
par ModbusTest1.configurator dumpConfig "\"\""
par ModbusTest1.macForwardingTableConfigurator typename "\"inet.linklayer.configurator.MacForwardingTableConfigurator\""
par ModbusTest1.operatorStation.ethg$i[0].channel typename "\"ned.IdealChannel\""
par ModbusTest1.operatorStation.eth[0].phys$o.channel typename "\"ned.IdealChannel\""
par ModbusTest1.operatorStation.ethg$i[1].channel typename "\"ned.IdealChannel\""
par ModbusTest1.operatorStation.eth[1].phys$o.channel typename "\"ned.IdealChannel\""
par ModbusTest1.operatorStation.interfaceTable typename "\"inet.networklayer.common.InterfaceTable\""
par ModbusTest1.operatorStation.interfaceTable displayAddresses false
par ModbusTest1.operatorStation.cb typename "\"inet.common.MessageDispatcher\""
par ModbusTest1.operatorStation.cb displayStringTextFormat "\"processed %p pk (%l)\""
par ModbusTest1.operatorStation.cb forwardServiceRegistration true
par ModbusTest1.operatorStation.cb forwardProtocolRegistration true
par ModbusTest1.operatorStation.bl typename "\"inet.common.MessageDispatcher\""
par ModbusTest1.operatorStation.bl displayStringTextFormat "\"processed %p pk (%l)\""
par ModbusTest1.operatorStation.bl forwardServiceRegistration true
par ModbusTest1.operatorStation.bl forwardProtocolRegistration true
par ModbusTest1.operatorStation.ethernet.fcsInserter.out.channel typename "\"ned.IdealChannel\""
par ModbusTest1.operatorStation.ethernet.lowerLayerIn.channel typename "\"ned.IdealChannel\""
par ModbusTest1.operatorStation.ethernet.upperLayerIn.channel typename "\"ned.IdealChannel\""
par ModbusTest1.operatorStation.ethernet.macHeaderChecker.out.channel typename "\"ned.IdealChannel\""
par ModbusTest1.operatorStation.ethernet.macHeaderInserter typename "\"inet.linklayer.ethernet.modular.EthernetMacHeaderInserter\""
par ModbusTest1.operatorStation.ethernet.macHeaderInserter displayStringTextFormat "\"processed %p pk (%l)\""
par ModbusTest1.operatorStation.ethernet.macHeaderInserter interfaceTableModule "\"ModbusTest1.operatorStation.interfaceTable\""
scalar ModbusTest1.operatorStation.ethernet.macHeaderInserter outgoingPackets:count 82
attr recordingmode count
attr source "merge(packetPushedOut, packetPulledOut)"
attr title "outgoing packets, count"
attr unit pk
scalar ModbusTest1.operatorStation.ethernet.macHeaderInserter outgoingPacketLengths:sum 37376
attr interpolationmode none
attr recordingmode sum
attr source "packetLength(merge(packetPushedOut, packetPulledOut))"
attr title "outgoing packet lengths, sum"
attr unit b
statistic ModbusTest1.operatorStation.ethernet.macHeaderInserter outgoingPacketLengths:histogram
field count 82
field mean 455.80487804878
field stddev 32.220857834865
field min 432
field max 616
field sum 37376
field sqrsum 17120256
attr interpolationmode none
attr recordingmode histogram
attr source "packetLength(merge(packetPushedOut, packetPulledOut))"
attr title "outgoing packet lengths"
attr unit b
bin	-inf	0
bin	385	0
bin	390	0
bin	395	0
bin	400	0
bin	405	0
bin	410	0
bin	415	0
bin	420	0
bin	425	0
bin	430	40
bin	435	0
bin	440	0
bin	445	0
bin	450	0
bin	455	0
bin	460	2
bin	465	0
bin	470	38
bin	475	0
bin	480	0
bin	485	0
bin	490	0
bin	495	0
bin	500	0
bin	505	0
bin	510	0
bin	515	0
bin	520	0
bin	525	0
bin	530	0
bin	535	0
bin	540	0
bin	545	0
bin	550	0
bin	555	0
bin	560	0
bin	565	0
bin	570	0
bin	575	0
bin	580	0
bin	585	0
bin	590	0
bin	595	0
bin	600	0
bin	605	0
bin	610	0
bin	615	2
bin	620	0
bin	625	0
bin	630	0
bin	635	0
bin	640	0
bin	645	0
bin	650	0
bin	655	0
bin	660	0
bin	665	0
scalar ModbusTest1.operatorStation.ethernet.macHeaderInserter flowOutgoingPacketLengths:sum 0
attr interpolationmode none
attr recordingmode sum
attr source "packetLength(demuxFlow(merge(packetPushedOut, packetPulledOut)))"
attr title "flow specific outgoing packet lengths, sum"
attr unit b
statistic ModbusTest1.operatorStation.ethernet.macHeaderInserter flowOutgoingPacketLengths:histogram
field count 0
field mean -nan
field stddev nan
field min nan
field max nan
field sum 0
field sqrsum 0
attr interpolationmode none
attr recordingmode histogram
attr source "packetLength(demuxFlow(merge(packetPushedOut, packetPulledOut)))"
attr title "flow specific outgoing packet lengths"
attr unit b
bin	-inf	0
bin	0	0
bin	1	0
scalar ModbusTest1.operatorStation.ethernet.macHeaderInserter incomingPackets:count 82
attr recordingmode count
attr source "merge(packetPushedIn, packetPulledIn)"
attr title "incoming packets, count"
attr unit pk
scalar ModbusTest1.operatorStation.ethernet.macHeaderInserter incomingPacketLengths:sum 28192
attr interpolationmode none
attr recordingmode sum
attr source "packetLength(merge(packetPushedIn, packetPulledIn))"
attr title "incoming packet lengths, sum"
attr unit b
statistic ModbusTest1.operatorStation.ethernet.macHeaderInserter incomingPacketLengths:histogram
field count 82
field mean 343.80487804878
field stddev 32.220857834865
field min 320
field max 504
field sum 28192
field sqrsum 9776640
attr interpolationmode none
attr recordingmode histogram
attr source "packetLength(merge(packetPushedIn, packetPulledIn))"
attr title "incoming packet lengths"
attr unit b
bin	-inf	0
bin	270	0
bin	275	0
bin	280	0
bin	285	0
bin	290	0
bin	295	0
bin	300	0
bin	305	0
bin	310	0
bin	315	0
bin	320	40
bin	325	0
bin	330	0
bin	335	0
bin	340	0
bin	345	0
bin	350	2
bin	355	0
bin	360	38
bin	365	0
bin	370	0
bin	375	0
bin	380	0
bin	385	0
bin	390	0
bin	395	0
bin	400	0
bin	405	0
bin	410	0
bin	415	0
bin	420	0
bin	425	0
bin	430	0
bin	435	0
bin	440	0
bin	445	0
bin	450	0
bin	455	0
bin	460	0
bin	465	0
bin	470	0
bin	475	0
bin	480	0
bin	485	0
bin	490	0
bin	495	0
bin	500	2
bin	505	0
bin	510	0
bin	515	0
bin	520	0
bin	525	0
bin	530	0
bin	535	0
bin	540	0
bin	545	0
bin	550	0
scalar ModbusTest1.operatorStation.ethernet.macHeaderInserter flowIncomingPacketLengths:sum 0
attr interpolationmode none
attr recordingmode sum
attr source "packetLength(demuxFlow(merge(packetPushedIn, packetPulledIn)))"
attr title "flow specific incoming packet lengths, sum"
attr unit b
statistic ModbusTest1.operatorStation.ethernet.macHeaderInserter flowIncomingPacketLengths:histogram
field count 0
field mean -nan
field stddev nan
field min nan
field max nan
field sum 0
field sqrsum 0
attr interpolationmode none
attr recordingmode histogram
attr source "packetLength(demuxFlow(merge(packetPushedIn, packetPulledIn)))"
attr title "flow specific incoming packet lengths"
attr unit b
bin	-inf	0
bin	0	0
bin	1	0
par ModbusTest1.operatorStation.ethernet.paddingInserter typename "\"inet.protocolelement.common.PaddingInserter\""
par ModbusTest1.operatorStation.ethernet.paddingInserter displayStringTextFormat "\"processed %p pk (%l)\""
par ModbusTest1.operatorStation.ethernet.paddingInserter minLength 480b
attr unit b
par ModbusTest1.operatorStation.ethernet.paddingInserter roundingLength 8b
attr unit b
par ModbusTest1.operatorStation.ethernet.paddingInserter insertionPosition "\"back\""
attr enum front,back
scalar ModbusTest1.operatorStation.ethernet.paddingInserter outgoingPackets:count 82
attr recordingmode count
attr source "merge(packetPushedOut, packetPulledOut)"
attr title "outgoing packets, count"
attr unit pk
scalar ModbusTest1.operatorStation.ethernet.paddingInserter outgoingPacketLengths:sum 39632
attr interpolationmode none
attr recordingmode sum
attr source "packetLength(merge(packetPushedOut, packetPulledOut))"
attr title "outgoing packet lengths, sum"
attr unit b
statistic ModbusTest1.operatorStation.ethernet.paddingInserter outgoingPacketLengths:histogram
field count 82
field mean 483.31707317073
field stddev 21.108115605481
field min 480
field max 616
field sum 39632
field sqrsum 19190912
attr interpolationmode none
attr recordingmode histogram
attr source "packetLength(merge(packetPushedOut, packetPulledOut))"
attr title "outgoing packet lengths"
attr unit b
bin	-inf	0
bin	446	0
bin	448	0
bin	450	0
bin	452	0
bin	454	0
bin	456	0
bin	458	0
bin	460	0
bin	462	0
bin	464	0
bin	466	0
bin	468	0
bin	470	0
bin	472	0
bin	474	0
bin	476	0
bin	478	0
bin	480	80
bin	482	0
bin	484	0
bin	486	0
bin	488	0
bin	490	0
bin	492	0
bin	494	0
bin	496	0
bin	498	0
bin	500	0
bin	502	0
bin	504	0
bin	506	0
bin	508	0
bin	510	0
bin	512	0
bin	514	0
bin	516	0
bin	518	0
bin	520	0
bin	522	0
bin	524	0
bin	526	0
bin	528	0
bin	530	0
bin	532	0
bin	534	0
bin	536	0
bin	538	0
bin	540	0
bin	542	0
bin	544	0
bin	546	0
bin	548	0
bin	550	0
bin	552	0
bin	554	0
bin	556	0
bin	558	0
bin	560	0
bin	562	0
bin	564	0
bin	566	0
bin	568	0
bin	570	0
bin	572	0
bin	574	0
bin	576	0
bin	578	0
bin	580	0
bin	582	0
bin	584	0
bin	586	0
bin	588	0
bin	590	0
bin	592	0
bin	594	0
bin	596	0
bin	598	0
bin	600	0
bin	602	0
bin	604	0
bin	606	0
bin	608	0
bin	610	0
bin	612	0
bin	614	0
bin	616	2
bin	618	0
bin	620	0
bin	622	0
bin	624	0
bin	626	0
bin	628	0
bin	630	0
bin	632	0
bin	634	0
bin	636	0
bin	638	0
bin	640	0
bin	642	0
bin	644	0
bin	646	0
bin	648	0
bin	650	0
scalar ModbusTest1.operatorStation.ethernet.paddingInserter flowOutgoingPacketLengths:sum 0
attr interpolationmode none
attr recordingmode sum
attr source "packetLength(demuxFlow(merge(packetPushedOut, packetPulledOut)))"
attr title "flow specific outgoing packet lengths, sum"
attr unit b
statistic ModbusTest1.operatorStation.ethernet.paddingInserter flowOutgoingPacketLengths:histogram
field count 0
field mean -nan
field stddev nan
field min nan
field max nan
field sum 0
field sqrsum 0
attr interpolationmode none
attr recordingmode histogram
attr source "packetLength(demuxFlow(merge(packetPushedOut, packetPulledOut)))"
attr title "flow specific outgoing packet lengths"
attr unit b
bin	-inf	0
bin	0	0
bin	1	0
scalar ModbusTest1.operatorStation.ethernet.paddingInserter incomingPackets:count 82
attr recordingmode count
attr source "merge(packetPushedIn, packetPulledIn)"
attr title "incoming packets, count"
attr unit pk
scalar ModbusTest1.operatorStation.ethernet.paddingInserter incomingPacketLengths:sum 37376
attr interpolationmode none
attr recordingmode sum
attr source "packetLength(merge(packetPushedIn, packetPulledIn))"
attr title "incoming packet lengths, sum"
attr unit b
statistic ModbusTest1.operatorStation.ethernet.paddingInserter incomingPacketLengths:histogram
field count 82
field mean 455.80487804878
field stddev 32.220857834865
field min 432
field max 616
field sum 37376
field sqrsum 17120256
attr interpolationmode none
attr recordingmode histogram
attr source "packetLength(merge(packetPushedIn, packetPulledIn))"
attr title "incoming packet lengths"
attr unit b
bin	-inf	0
bin	385	0
bin	390	0
bin	395	0
bin	400	0
bin	405	0
bin	410	0
bin	415	0
bin	420	0
bin	425	0
bin	430	40
bin	435	0
bin	440	0
bin	445	0
bin	450	0
bin	455	0
bin	460	2
bin	465	0
bin	470	38
bin	475	0
bin	480	0
bin	485	0
bin	490	0
bin	495	0
bin	500	0
bin	505	0
bin	510	0
bin	515	0
bin	520	0
bin	525	0
bin	530	0
bin	535	0
bin	540	0
bin	545	0
bin	550	0
bin	555	0
bin	560	0
bin	565	0
bin	570	0
bin	575	0
bin	580	0
bin	585	0
bin	590	0
bin	595	0
bin	600	0
bin	605	0
bin	610	0
bin	615	2
bin	620	0
bin	625	0
bin	630	0
bin	635	0
bin	640	0
bin	645	0
bin	650	0
bin	655	0
bin	660	0
bin	665	0
scalar ModbusTest1.operatorStation.ethernet.paddingInserter flowIncomingPacketLengths:sum 0
attr interpolationmode none
attr recordingmode sum
attr source "packetLength(demuxFlow(merge(packetPushedIn, packetPulledIn)))"
attr title "flow specific incoming packet lengths, sum"
attr unit b
statistic ModbusTest1.operatorStation.ethernet.paddingInserter flowIncomingPacketLengths:histogram
field count 0
field mean -nan
field stddev nan
field min nan
field max nan
field sum 0
field sqrsum 0
attr interpolationmode none
attr recordingmode histogram
attr source "packetLength(demuxFlow(merge(packetPushedIn, packetPulledIn)))"
attr title "flow specific incoming packet lengths"
attr unit b
bin	-inf	0
bin	0	0
bin	1	0
par ModbusTest1.operatorStation.ethernet.fcsInserter typename "\"inet.linklayer.ethernet.modular.EthernetFcsInserter\""
par ModbusTest1.operatorStation.ethernet.fcsInserter displayStringTextFormat "\"processed %p pk (%l)\""
par ModbusTest1.operatorStation.ethernet.fcsInserter fcsMode "\"computed\""
attr enum disabled,declared,computed
scalar ModbusTest1.operatorStation.ethernet.fcsInserter outgoingPackets:count 82
attr recordingmode count
attr source "merge(packetPushedOut, packetPulledOut)"
attr title "outgoing packets, count"
attr unit pk
scalar ModbusTest1.operatorStation.ethernet.fcsInserter outgoingPacketLengths:sum 42256
attr interpolationmode none
attr recordingmode sum
attr source "packetLength(merge(packetPushedOut, packetPulledOut))"
attr title "outgoing packet lengths, sum"
attr unit b
statistic ModbusTest1.operatorStation.ethernet.fcsInserter outgoingPacketLengths:histogram
field count 82
field mean 515.31707317073
field stddev 21.108115605481
field min 512
field max 648
field sum 42256
field sqrsum 21811328
attr interpolationmode none
attr recordingmode histogram
attr source "packetLength(merge(packetPushedOut, packetPulledOut))"
attr title "outgoing packet lengths"
attr unit b
bin	-inf	0
bin	478	0
bin	480	0
bin	482	0
bin	484	0
bin	486	0
bin	488	0
bin	490	0
bin	492	0
bin	494	0
bin	496	0
bin	498	0
bin	500	0
bin	502	0
bin	504	0
bin	506	0
bin	508	0
bin	510	0
bin	512	80
bin	514	0
bin	516	0
bin	518	0
bin	520	0
bin	522	0
bin	524	0
bin	526	0
bin	528	0
bin	530	0
bin	532	0
bin	534	0
bin	536	0
bin	538	0
bin	540	0
bin	542	0
bin	544	0
bin	546	0
bin	548	0
bin	550	0
bin	552	0
bin	554	0
bin	556	0
bin	558	0
bin	560	0
bin	562	0
bin	564	0
bin	566	0
bin	568	0
bin	570	0
bin	572	0
bin	574	0
bin	576	0
bin	578	0
bin	580	0
bin	582	0
bin	584	0
bin	586	0
bin	588	0
bin	590	0
bin	592	0
bin	594	0
bin	596	0
bin	598	0
bin	600	0
bin	602	0
bin	604	0
bin	606	0
bin	608	0
bin	610	0
bin	612	0
bin	614	0
bin	616	0
bin	618	0
bin	620	0
bin	622	0
bin	624	0
bin	626	0
bin	628	0
bin	630	0
bin	632	0
bin	634	0
bin	636	0
bin	638	0
bin	640	0
bin	642	0
bin	644	0
bin	646	0
bin	648	2
bin	650	0
bin	652	0
bin	654	0
bin	656	0
bin	658	0
bin	660	0
bin	662	0
bin	664	0
bin	666	0
bin	668	0
bin	670	0
bin	672	0
bin	674	0
bin	676	0
bin	678	0
bin	680	0
bin	682	0
scalar ModbusTest1.operatorStation.ethernet.fcsInserter flowOutgoingPacketLengths:sum 0
attr interpolationmode none
attr recordingmode sum
attr source "packetLength(demuxFlow(merge(packetPushedOut, packetPulledOut)))"
attr title "flow specific outgoing packet lengths, sum"
attr unit b
statistic ModbusTest1.operatorStation.ethernet.fcsInserter flowOutgoingPacketLengths:histogram
field count 0
field mean -nan
field stddev nan
field min nan
field max nan
field sum 0
field sqrsum 0
attr interpolationmode none
attr recordingmode histogram
attr source "packetLength(demuxFlow(merge(packetPushedOut, packetPulledOut)))"
attr title "flow specific outgoing packet lengths"
attr unit b
bin	-inf	0
bin	0	0
bin	1	0
scalar ModbusTest1.operatorStation.ethernet.fcsInserter incomingPackets:count 82
attr recordingmode count
attr source "merge(packetPushedIn, packetPulledIn)"
attr title "incoming packets, count"
attr unit pk
scalar ModbusTest1.operatorStation.ethernet.fcsInserter incomingPacketLengths:sum 39632
attr interpolationmode none
attr recordingmode sum
attr source "packetLength(merge(packetPushedIn, packetPulledIn))"
attr title "incoming packet lengths, sum"
attr unit b
statistic ModbusTest1.operatorStation.ethernet.fcsInserter incomingPacketLengths:histogram
field count 82
field mean 483.31707317073
field stddev 21.108115605481
field min 480
field max 616
field sum 39632
field sqrsum 19190912
attr interpolationmode none
attr recordingmode histogram
attr source "packetLength(merge(packetPushedIn, packetPulledIn))"
attr title "incoming packet lengths"
attr unit b
bin	-inf	0
bin	446	0
bin	448	0
bin	450	0
bin	452	0
bin	454	0
bin	456	0
bin	458	0
bin	460	0
bin	462	0
bin	464	0
bin	466	0
bin	468	0
bin	470	0
bin	472	0
bin	474	0
bin	476	0
bin	478	0
bin	480	80
bin	482	0
bin	484	0
bin	486	0
bin	488	0
bin	490	0
bin	492	0
bin	494	0
bin	496	0
bin	498	0
bin	500	0
bin	502	0
bin	504	0
bin	506	0
bin	508	0
bin	510	0
bin	512	0
bin	514	0
bin	516	0
bin	518	0
bin	520	0
bin	522	0
bin	524	0
bin	526	0
bin	528	0
bin	530	0
bin	532	0
bin	534	0
bin	536	0
bin	538	0
bin	540	0
bin	542	0
bin	544	0
bin	546	0
bin	548	0
bin	550	0
bin	552	0
bin	554	0
bin	556	0
bin	558	0
bin	560	0
bin	562	0
bin	564	0
bin	566	0
bin	568	0
bin	570	0
bin	572	0
bin	574	0
bin	576	0
bin	578	0
bin	580	0
bin	582	0
bin	584	0
bin	586	0
bin	588	0
bin	590	0
bin	592	0
bin	594	0
bin	596	0
bin	598	0
bin	600	0
bin	602	0
bin	604	0
bin	606	0
bin	608	0
bin	610	0
bin	612	0
bin	614	0
bin	616	2
bin	618	0
bin	620	0
bin	622	0
bin	624	0
bin	626	0
bin	628	0
bin	630	0
bin	632	0
bin	634	0
bin	636	0
bin	638	0
bin	640	0
bin	642	0
bin	644	0
bin	646	0
bin	648	0
bin	650	0
scalar ModbusTest1.operatorStation.ethernet.fcsInserter flowIncomingPacketLengths:sum 0
attr interpolationmode none
attr recordingmode sum
attr source "packetLength(demuxFlow(merge(packetPushedIn, packetPulledIn)))"
attr title "flow specific incoming packet lengths, sum"
attr unit b
statistic ModbusTest1.operatorStation.ethernet.fcsInserter flowIncomingPacketLengths:histogram
field count 0
field mean -nan
field stddev nan
field min nan
field max nan
field sum 0
field sqrsum 0
attr interpolationmode none
attr recordingmode histogram
attr source "packetLength(demuxFlow(merge(packetPushedIn, packetPulledIn)))"
attr title "flow specific incoming packet lengths"
attr unit b
bin	-inf	0
bin	0	0
bin	1	0
par ModbusTest1.operatorStation.ethernet.macHeaderChecker typename "\"inet.linklayer.ethernet.modular.EthernetMacHeaderChecker\""
par ModbusTest1.operatorStation.ethernet.macHeaderChecker displayStringTextFormat "\"dropped %d/%p pk (%k/%l)\""
par ModbusTest1.operatorStation.ethernet.macHeaderChecker backpressure false
par ModbusTest1.operatorStation.ethernet.macHeaderChecker interfaceTableModule "\"ModbusTest1.operatorStation.interfaceTable\""
par ModbusTest1.operatorStation.ethernet.macHeaderChecker promiscuous false
scalar ModbusTest1.operatorStation.ethernet.macHeaderChecker outgoingPackets:count 79
attr recordingmode count
attr source "merge(packetPushedOut, packetPulledOut)"
attr title "outgoing packets, count"
attr unit pk
scalar ModbusTest1.operatorStation.ethernet.macHeaderChecker outgoingPacketLengths:sum 70720
attr interpolationmode none
attr recordingmode sum
attr source "packetLength(merge(packetPushedOut, packetPulledOut))"
attr title "outgoing packet lengths, sum"
attr unit b
statistic ModbusTest1.operatorStation.ethernet.macHeaderChecker outgoingPacketLengths:histogram
field count 79
field mean 895.18987341772
field stddev 551.10383581033
field min 368
field max 1464
field sum 70720
field sqrsum 86997632
attr interpolationmode none
attr recordingmode histogram
attr source "packetLength(merge(packetPushedOut, packetPulledOut))"
attr title "outgoing packet lengths"
attr unit b
bin	-inf	0
bin	80	0
bin	100	0
bin	120	0
bin	140	0
bin	160	0
bin	180	0
bin	200	0
bin	220	0
bin	240	0
bin	260	0
bin	280	0
bin	300	0
bin	320	0
bin	340	0
bin	360	41
bin	380	0
bin	400	0
bin	420	0
bin	440	0
bin	460	0
bin	480	0
bin	500	0
bin	520	0
bin	540	0
bin	560	0
bin	580	0
bin	600	0
bin	620	0
bin	640	0
bin	660	0
bin	680	0
bin	700	0
bin	720	0
bin	740	0
bin	760	0
bin	780	0
bin	800	0
bin	820	0
bin	840	0
bin	860	0
bin	880	0
bin	900	0
bin	920	0
bin	940	0
bin	960	0
bin	980	0
bin	1000	0
bin	1020	0
bin	1040	0
bin	1060	0
bin	1080	0
bin	1100	0
bin	1120	0
bin	1140	0
bin	1160	0
bin	1180	0
bin	1200	0
bin	1220	0
bin	1240	0
bin	1260	0
bin	1280	0
bin	1300	0
bin	1320	0
bin	1340	0
bin	1360	0
bin	1380	0
bin	1400	0
bin	1420	0
bin	1440	0
bin	1460	38
bin	1480	0
bin	1500	0
bin	1520	0
bin	1540	0
bin	1560	0
bin	1580	0
bin	1600	0
bin	1620	0
bin	1640	0
bin	1660	0
bin	1680	0
bin	1700	0
bin	1720	0
bin	1740	0
scalar ModbusTest1.operatorStation.ethernet.macHeaderChecker flowOutgoingPacketLengths:sum 0
attr interpolationmode none
attr recordingmode sum
attr source "packetLength(demuxFlow(merge(packetPushedOut, packetPulledOut)))"
attr title "flow specific outgoing packet lengths, sum"
attr unit b
statistic ModbusTest1.operatorStation.ethernet.macHeaderChecker flowOutgoingPacketLengths:histogram
field count 0
field mean -nan
field stddev nan
field min nan
field max nan
field sum 0
field sqrsum 0
attr interpolationmode none
attr recordingmode histogram
attr source "packetLength(demuxFlow(merge(packetPushedOut, packetPulledOut)))"
attr title "flow specific outgoing packet lengths"
attr unit b
bin	-inf	0
bin	0	0
bin	1	0
scalar ModbusTest1.operatorStation.ethernet.macHeaderChecker incomingPackets:count 79
attr recordingmode count
attr source "merge(packetPushedIn, packetPulledIn)"
attr title "incoming packets, count"
attr unit pk
scalar ModbusTest1.operatorStation.ethernet.macHeaderChecker incomingPacketLengths:sum 79568
attr interpolationmode none
attr recordingmode sum
attr source "packetLength(merge(packetPushedIn, packetPulledIn))"
attr title "incoming packet lengths, sum"
attr unit b
statistic ModbusTest1.operatorStation.ethernet.macHeaderChecker incomingPacketLengths:histogram
field count 79
field mean 1007.1898734177
field stddev 551.10383581033
field min 480
field max 1576
field sum 79568
field sqrsum 103829888
attr interpolationmode none
attr recordingmode histogram
[...]
attr interpolationmode none
attr recordingmode sum
attr source "packetLength(demuxFlow(merge(packetPushedIn, packetPulledIn)))"
attr title "flow specific incoming packet lengths, sum"
attr unit b
statistic ModbusTest1.client[1].eth[1].phyLayer.inboundEmitter flowIncomingPacketLengths:histogram
field count 0
field mean -nan
field stddev nan
field min nan
field max nan
field sum 0
field sqrsum 0
attr interpolationmode none
attr recordingmode histogram
attr source "packetLength(demuxFlow(merge(packetPushedIn, packetPulledIn)))"
attr title "flow specific incoming packet lengths"
attr unit b
bin	-inf	0
bin	0	0
bin	1	0
par ModbusTest1.client[1].eth[1].phyLayer.receiver typename "\"inet.protocolelement.transceiver.PacketReceiver\""
par ModbusTest1.client[1].eth[1].phyLayer.receiver displayStringTextFormat "\"processed %p pk (%l)\""
par ModbusTest1.client[1].eth[1].phyLayer.receiver datarate 1e+08bps
attr unit bps
statistic ModbusTest1.client[1].eth[1].phyLayer.receiver receptionTime:histogram
field count 0
field mean -nan
field stddev nan
field min nan
field max nan
field sum 0
field sqrsum 0
attr interpolationmode none
attr recordingmode histogram
attr source packetDuration(receptionEnded)
attr title "reception time"
attr unit s
bin	-inf	0
bin	0	0
bin	1	0
statistic ModbusTest1.client[1].eth[1].phyLayer.receiver flowReceptionTime:histogram
field count 0
field mean -nan
field stddev nan
field min nan
field max nan
field sum 0
field sqrsum 0
attr interpolationmode none
attr recordingmode histogram
attr source packetDuration(demuxFlow(receptionEnded))
attr title "flow reception time"
attr unit s
bin	-inf	0
bin	0	0
bin	1	0
par ModbusTest1.client[1].eth[1].phyLayer typename "\"inet.physicallayer.wired.ethernet.EthernetPhyLayer\""
par ModbusTest1.client[1].eth[1].phyLayer bitrate this.bitrate
attr unit bps
par ModbusTest1.client[1].eth[1] typename "\"inet.linklayer.ethernet.LayeredEthernetInterface\""
par ModbusTest1.client[1].eth[1] displayStringTextFormat "\"%a (%i)\\n%m\""
par ModbusTest1.client[1].eth[1] recordPcap false
par ModbusTest1.client[1].eth[1] numPcapRecorders 0
par ModbusTest1.client[1].eth[1] protocol "\"ethernetmac\""
par ModbusTest1.client[1].eth[1] broadcast true
par ModbusTest1.client[1].eth[1] multicast true
par ModbusTest1.client[1].eth[1] address "\"0A-AA-00-00-00-12\""
attr mutable ""
par ModbusTest1.client[1].eth[1] bitrate 1e+08bps
attr unit bps
par ModbusTest1.client[1].eth[1] mtu 1500B
attr unit B
par ModbusTest1.client[1].eth[1] interfaceTableModule "\"ModbusTest1.client[1].interfaceTable\""
scalar ModbusTest1.client[1].eth[1] packetDropInterfaceDown:count 0
attr interpolationmode none
attr recordingmode count
attr source packetDropReasonIsInterfaceDown(packetDropped)
attr title "packet drops: interface down, count"
scalar ModbusTest1.client[1].eth[1] packetDropInterfaceDown:sum(packetBytes) 0
attr interpolationmode none
attr recordingmode sum(packetBytes)
attr source packetDropReasonIsInterfaceDown(packetDropped)
attr title "packet drops: interface down, sum(packetBytes)"
scalar ModbusTest1.client[1].eth[1] packetDropNoCarrier:count 0
attr interpolationmode none
attr recordingmode count
attr source packetDropReasonIsNoCarrier(packetDropped)
attr title "packet drops: no carrier, count"
scalar ModbusTest1.client[1].eth[1] packetDropNoCarrier:sum(packetBytes) 0
attr interpolationmode none
attr recordingmode sum(packetBytes)
attr source packetDropReasonIsNoCarrier(packetDropped)
attr title "packet drops: no carrier, sum(packetBytes)"
par ModbusTest1.client[1].ipv4.transportIn.channel typename "\"ned.IdealChannel\""
par ModbusTest1.client[1].ipv4.up.out[0].channel typename "\"ned.IdealChannel\""
par ModbusTest1.client[1].ipv4.lp.out[2].channel typename "\"ned.IdealChannel\""
par ModbusTest1.client[1].ipv4.ifIn.channel typename "\"ned.IdealChannel\""
par ModbusTest1.client[1].ipv4.configurator typename "\"inet.networklayer.configurator.ipv4.Ipv4NodeConfigurator\""
par ModbusTest1.client[1].ipv4.configurator interfaceTableModule "\"ModbusTest1.client[1].interfaceTable\""
par ModbusTest1.client[1].ipv4.configurator routingTableModule "\"ModbusTest1.client[1].ipv4.routingTable\""
par ModbusTest1.client[1].ipv4.configurator networkConfiguratorModule "\"configurator\""
par ModbusTest1.client[1].ipv4.configurator configureRoutingTable true
par ModbusTest1.client[1].ipv4.routingTable typename "\"inet.networklayer.ipv4.Ipv4RoutingTable\""
par ModbusTest1.client[1].ipv4.routingTable interfaceTableModule "\"ModbusTest1.client[1].interfaceTable\""
par ModbusTest1.client[1].ipv4.routingTable routerId "\"auto\""
par ModbusTest1.client[1].ipv4.routingTable netmaskRoutes "\"*\""
par ModbusTest1.client[1].ipv4.routingTable forwarding false
par ModbusTest1.client[1].ipv4.routingTable multicastForwarding false
par ModbusTest1.client[1].ipv4.routingTable useAdminDist false
par ModbusTest1.client[1].ipv4.routingTable routingFile "\"\""
par ModbusTest1.client[1].ipv4.natTable typename "\"inet.networklayer.ipv4.Ipv4NatTable\""
par ModbusTest1.client[1].ipv4.natTable networkProtocolModule "\"^.ip\""
par ModbusTest1.client[1].ipv4.natTable config "<config/> at content:1"
par ModbusTest1.client[1].ipv4.up typename "\"inet.common.MessageDispatcher\""
par ModbusTest1.client[1].ipv4.up displayStringTextFormat "\"processed %p pk (%l)\""
par ModbusTest1.client[1].ipv4.up forwardServiceRegistration true
par ModbusTest1.client[1].ipv4.up forwardProtocolRegistration true
par ModbusTest1.client[1].ipv4.igmp typename "\"inet.networklayer.ipv4.Igmpv2\""
par ModbusTest1.client[1].ipv4.igmp interfaceTableModule "\"ModbusTest1.client[1].interfaceTable\""
par ModbusTest1.client[1].ipv4.igmp routingTableModule "\"ModbusTest1.client[1].ipv4.routingTable\""
par ModbusTest1.client[1].ipv4.igmp crcMode "\"computed\""
attr enum declared,computed
par ModbusTest1.client[1].ipv4.igmp enabled true
par ModbusTest1.client[1].ipv4.igmp robustnessVariable 2
par ModbusTest1.client[1].ipv4.igmp queryInterval 125s
attr unit s
par ModbusTest1.client[1].ipv4.igmp queryResponseInterval 10s
attr unit s
par ModbusTest1.client[1].ipv4.igmp groupMembershipInterval 260s
attr unit s
par ModbusTest1.client[1].ipv4.igmp otherQuerierPresentInterval 255s
attr unit s
par ModbusTest1.client[1].ipv4.igmp startupQueryInterval 31.25s
attr unit s
par ModbusTest1.client[1].ipv4.igmp startupQueryCount 2
par ModbusTest1.client[1].ipv4.igmp lastMemberQueryInterval 1s
attr unit s
par ModbusTest1.client[1].ipv4.igmp lastMemberQueryCount 2
par ModbusTest1.client[1].ipv4.igmp unsolicitedReportInterval 10s
attr unit s
par ModbusTest1.client[1].ipv4.icmp typename "\"inet.networklayer.ipv4.Icmp\""
par ModbusTest1.client[1].ipv4.icmp interfaceTableModule "\"ModbusTest1.client[1].interfaceTable\""
par ModbusTest1.client[1].ipv4.icmp routingTableModule "\"ModbusTest1.client[1].ipv4.routingTable\""
par ModbusTest1.client[1].ipv4.icmp crcMode "\"computed\""
attr enum declared,computed
attr mutable ""
par ModbusTest1.client[1].ipv4.icmp quoteLength 8B
attr mutable ""
attr unit B
par ModbusTest1.client[1].ipv4.mp typename "\"inet.common.MessageDispatcher\""
par ModbusTest1.client[1].ipv4.mp displayStringTextFormat "\"processed %p pk (%l)\""
par ModbusTest1.client[1].ipv4.mp forwardServiceRegistration true
par ModbusTest1.client[1].ipv4.mp forwardProtocolRegistration true
par ModbusTest1.client[1].ipv4.ip typename "\"inet.networklayer.ipv4.Ipv4\""
par ModbusTest1.client[1].ipv4.ip interfaceTableModule "\"ModbusTest1.client[1].interfaceTable\""
par ModbusTest1.client[1].ipv4.ip routingTableModule "\"ModbusTest1.client[1].ipv4.routingTable\""
par ModbusTest1.client[1].ipv4.ip arpModule "\"ModbusTest1.client[1].ipv4.arp\""
par ModbusTest1.client[1].ipv4.ip icmpModule "\"ModbusTest1.client[1].ipv4.icmp\""
par ModbusTest1.client[1].ipv4.ip crcMode "\"computed\""
attr enum declared,computed
par ModbusTest1.client[1].ipv4.ip timeToLive 32
par ModbusTest1.client[1].ipv4.ip multicastTimeToLive 32
par ModbusTest1.client[1].ipv4.ip fragmentTimeout 60s
attr unit s
par ModbusTest1.client[1].ipv4.ip limitedBroadcast false
par ModbusTest1.client[1].ipv4.ip directBroadcastInterfaces "\"\""
scalar ModbusTest1.client[1].ipv4.ip packetDropAddressResolutionFailed:count 0
attr interpolationmode none
attr recordingmode count
attr source packetDropReasonIsAddressResolutionFailed(packetDropped)
attr title "packet drop: address resolution failed, count"
scalar ModbusTest1.client[1].ipv4.ip packetDropAddressResolutionFailed:sum(packetBytes) 0
attr interpolationmode none
attr recordingmode sum(packetBytes)
attr source packetDropReasonIsAddressResolutionFailed(packetDropped)
attr title "packet drop: address resolution failed, sum(packetBytes)"
scalar ModbusTest1.client[1].ipv4.ip packetDropHopLimitReached:count 0
attr interpolationmode none
attr recordingmode count
attr source packetDropReasonIsHopLimitReached(packetDropped)
attr title "packet drop: hop limit reached, count"
scalar ModbusTest1.client[1].ipv4.ip packetDropHopLimitReached:sum(packetBytes) 0
attr interpolationmode none
attr recordingmode sum(packetBytes)
attr source packetDropReasonIsHopLimitReached(packetDropped)
attr title "packet drop: hop limit reached, sum(packetBytes)"
scalar ModbusTest1.client[1].ipv4.ip packetDropForwardingDisabled:count 0
attr interpolationmode none
attr recordingmode count
attr source packetDropReasonIsForwardingDisabled(packetDropped)
attr title "packet drop: forwarding disabled, count"
scalar ModbusTest1.client[1].ipv4.ip packetDropForwardingDisabled:sum(packetBytes) 0
attr interpolationmode none
attr recordingmode sum(packetBytes)
attr source packetDropReasonIsForwardingDisabled(packetDropped)
attr title "packet drop: forwarding disabled, sum(packetBytes)"
scalar ModbusTest1.client[1].ipv4.ip packetDropNoInterfaceFound:count 0
attr interpolationmode none
attr recordingmode count
attr source packetDropReasonIsNoInterfaceFound(packetDropped)
attr title "packet drop: no interface found, count"
scalar ModbusTest1.client[1].ipv4.ip packetDropNoInterfaceFound:sum(packetBytes) 0
attr interpolationmode none
attr recordingmode sum(packetBytes)
attr source packetDropReasonIsNoInterfaceFound(packetDropped)
attr title "packet drop: no interface found, sum(packetBytes)"
scalar ModbusTest1.client[1].ipv4.ip packetDropNoRouteFound:count 0
attr interpolationmode none
attr recordingmode count
attr source packetDropReasonIsNoRouteFound(packetDropped)
attr title "packet drop: no route found, count"
scalar ModbusTest1.client[1].ipv4.ip packetDropNoRouteFound:sum(packetBytes) 0
attr interpolationmode none
attr recordingmode sum(packetBytes)
attr source packetDropReasonIsNoRouteFound(packetDropped)
attr title "packet drop: no route found, sum(packetBytes)"
scalar ModbusTest1.client[1].ipv4.ip packetDropUndefined:count 0
attr interpolationmode none
attr recordingmode count
attr source packetDropReasonIsUndefined(packetDropped)
attr title "packet drop: undefined, count"
scalar ModbusTest1.client[1].ipv4.ip packetDropUndefined:sum(packetBytes) 0
attr interpolationmode none
attr recordingmode sum(packetBytes)
attr source packetDropReasonIsUndefined(packetDropped)
attr title "packet drop: undefined, sum(packetBytes)"
par ModbusTest1.client[1].ipv4.arp typename "\"inet.networklayer.arp.ipv4.GlobalArp\""
par ModbusTest1.client[1].ipv4.arp interfaceTableModule "\"ModbusTest1.client[1].interfaceTable\""
par ModbusTest1.client[1].ipv4.arp addressType "\"ipv4\""
attr enum ipv4,ipv6,mac,moduleid,modulepath
par ModbusTest1.client[1].ipv4.lp typename "\"inet.common.MessageDispatcher\""
par ModbusTest1.client[1].ipv4.lp displayStringTextFormat "\"processed %p pk (%l)\""
par ModbusTest1.client[1].ipv4.lp forwardServiceRegistration true
par ModbusTest1.client[1].ipv4.lp forwardProtocolRegistration true
par ModbusTest1.client[1].ipv4 typename "\"inet.networklayer.ipv4.Ipv4NetworkLayer\""
par ModbusTest1.client[1].ipv4 forwarding false
par ModbusTest1.client[1].ipv4 multicastForwarding false
par ModbusTest1.client[1].ipv4 interfaceTableModule "\"ModbusTest1.client[1].interfaceTable\""
par ModbusTest1.client[1].ipv4 displayStringTextFormat "\"%i\""
par ModbusTest1.client[1].nl typename "\"inet.common.MessageDispatcher\""
par ModbusTest1.client[1].nl displayStringTextFormat "\"processed %p pk (%l)\""
par ModbusTest1.client[1].nl forwardServiceRegistration true
par ModbusTest1.client[1].nl forwardProtocolRegistration true
par ModbusTest1.client[1].udp.crcInsertion typename "\"inet.transportlayer.udp.UdpCrcInsertionHook\""
par ModbusTest1.client[1].udp typename "\"inet.transportlayer.udp.Udp\""
par ModbusTest1.client[1].udp interfaceTableModule "\"ModbusTest1.client[1].interfaceTable\""
par ModbusTest1.client[1].udp icmpModule "\"^.ipv4.icmp\""
par ModbusTest1.client[1].udp icmpv6Module "\"^.ipv6.icmpv6\""
par ModbusTest1.client[1].udp crcMode "\"computed\""
attr enum disabled,declared,computed
par ModbusTest1.client[1].udp defaultMulticastLoop true
scalar ModbusTest1.client[1].udp packetReceived:count 0
attr interpolationmode none
attr recordingmode count
attr source packetReceived
attr title "packets received, count"
scalar ModbusTest1.client[1].udp packetReceived:sum(packetBytes) 0
attr interpolationmode none
attr recordingmode sum(packetBytes)
attr source packetReceived
attr title "packets received, sum(packetBytes)"
scalar ModbusTest1.client[1].udp packetSent:count 0
attr interpolationmode none
attr recordingmode count
attr source packetSent
attr title "packets sent, count"
scalar ModbusTest1.client[1].udp packetSent:sum(packetBytes) 0
attr interpolationmode none
attr recordingmode sum(packetBytes)
attr source packetSent
attr title "packets sent, sum(packetBytes)"
scalar ModbusTest1.client[1].udp passedUpPk:count 0
attr interpolationmode none
attr recordingmode count
attr source packetSentToUpper
attr title "packets passed up, count"
scalar ModbusTest1.client[1].udp droppedPkWrongPort:count 0
attr interpolationmode none
attr recordingmode count
attr source packetDropReasonIsNoPortFound(packetDropped)
attr title "packets dropped (wrong port), count"
scalar ModbusTest1.client[1].udp droppedPkBadChecksum:count 0
attr interpolationmode none
attr recordingmode count
attr source packetDropReasonIsIncorrectlyReceived(packetDropped)
attr title "packets dropped (checksum error), count"
par ModbusTest1.client[1].tcp.crcInsertion typename "\"inet.transportlayer.tcp_common.TcpCrcInsertionHook\""
par ModbusTest1.client[1].tcp.conn-5 typename "\"inet.transportlayer.tcp.TcpConnection\""
par ModbusTest1.client[1].tcp.conn-11 typename "\"inet.transportlayer.tcp.TcpConnection\""
par ModbusTest1.client[1].tcp typename "\"inet.transportlayer.tcp.Tcp\""
par ModbusTest1.client[1].tcp crcMode "\"computed\""
attr enum declared,computed
par ModbusTest1.client[1].tcp advertisedWindow 7504
par ModbusTest1.client[1].tcp delayedAcksEnabled false
par ModbusTest1.client[1].tcp nagleEnabled true
par ModbusTest1.client[1].tcp limitedTransmitEnabled false
par ModbusTest1.client[1].tcp increasedIWEnabled false
par ModbusTest1.client[1].tcp sackSupport false
par ModbusTest1.client[1].tcp windowScalingSupport false
par ModbusTest1.client[1].tcp windowScalingFactor -1
par ModbusTest1.client[1].tcp timestampSupport false
par ModbusTest1.client[1].tcp mss 536
par ModbusTest1.client[1].tcp msl 120s
attr unit s
par ModbusTest1.client[1].tcp tcpAlgorithmClass "\"TcpReno\""
par ModbusTest1.client[1].tcp useDataNotification false
par ModbusTest1.client[1].tcp dupthresh 3
par ModbusTest1.client[1].tcp initialSsthresh 4294967295
par ModbusTest1.client[1].tcp stopOperationExtraTime 0s
attr unit s
par ModbusTest1.client[1].tcp stopOperationTimeout 2s
attr unit s
par ModbusTest1.client[1].tcp ecnWillingness false
par ModbusTest1.client[1].tcp dctcpGamma 0.0625
par ModbusTest1.client[1].tn typename "\"inet.common.MessageDispatcher\""
par ModbusTest1.client[1].tn displayStringTextFormat "\"processed %p pk (%l)\""
par ModbusTest1.client[1].tn forwardServiceRegistration true
par ModbusTest1.client[1].tn forwardProtocolRegistration true
par ModbusTest1.client[1].app[0] typename "\"inet.applications.tcpapp.ModbusSlaveApp\""
par ModbusTest1.client[1].app[0] localAddress "\"10.0.0.5\""
par ModbusTest1.client[1].app[0] localPort 502
par ModbusTest1.client[1].app[0] slavesConfigPath "\"ModbusStorageConfig.json\""
par ModbusTest1.client[1].app[0] stopOperationExtraTime -1s
attr unit s
par ModbusTest1.client[1].app[0] stopOperationTimeout 2s
attr unit s
scalar ModbusTest1.client[1].app[0] packetReceived:count 39
attr interpolationmode none
attr recordingmode count
attr source packetReceived
attr title "packets received, count"
scalar ModbusTest1.client[1].app[0] packetReceived:sum(packetBytes) 480
attr interpolationmode none
attr recordingmode sum(packetBytes)
attr source packetReceived
attr title "packets received, sum(packetBytes)"
statistic ModbusTest1.client[1].app[0] endToEndDelay:histogram
field count 0
field mean -nan
field stddev nan
field min nan
field max nan
field sum 0
field sqrsum 0
attr interpolationmode none
attr recordingmode histogram
attr source dataAge(packetReceived)
attr title "end-to-end delay"
attr unit s
bin	-inf	0
bin	0	0
bin	1	0
statistic ModbusTest1.client[1].app[0] endToEndDelay:weightedHistogram
field count 0
field mean -nan
field stddev nan
field min nan
field max nan
field weights 0
field weightedSum 0
field sqrSumWeights 0
field weightedSqrSum 0
attr interpolationmode none
attr recordingmode weightedHistogram
attr source dataAge(packetReceived)
attr title "end-to-end delay, weightedHistogram"
attr unit s
bin	-inf	0
bin	0	0
bin	1	0
scalar ModbusTest1.client[1].app[0] packetSent:count 0
attr interpolationmode none
attr recordingmode count
attr source packetSent
attr title "packets sent, count"
scalar ModbusTest1.client[1].app[0] packetSent:sum(packetBytes) 0
attr interpolationmode none
attr recordingmode sum(packetBytes)
attr source packetSent
attr title "packets sent, sum(packetBytes)"
par ModbusTest1.client[1].at typename "\"inet.common.MessageDispatcher\""
par ModbusTest1.client[1].at displayStringTextFormat "\"processed %p pk (%l)\""
par ModbusTest1.client[1].at forwardServiceRegistration true
par ModbusTest1.client[1].at forwardProtocolRegistration true
par ModbusTest1.client[1] typename "\"inet.node.tsn.TsnDevice\""
par ModbusTest1.client[1] hasStatus false
par ModbusTest1.client[1] osgModel "\"\""
par ModbusTest1.client[1] osgModelColor "\"\""
par ModbusTest1.client[1] canvasImage "\"\""
par ModbusTest1.client[1] canvasImageColor "\"\""
par ModbusTest1.client[1] recordPcap false
par ModbusTest1.client[1] numPcapRecorders 0
par ModbusTest1.client[1] numLoInterfaces 1
par ModbusTest1.client[1] numWlanInterfaces 0
par ModbusTest1.client[1] numEthInterfaces 0
par ModbusTest1.client[1] numPppInterfaces 0
par ModbusTest1.client[1] numTunInterfaces 0
par ModbusTest1.client[1] numVirtInterfaces 0
par ModbusTest1.client[1] fcsMode "\"computed\""
attr enum declared,computed
par ModbusTest1.client[1] hasIpv4 true
par ModbusTest1.client[1] hasIpv6 false
par ModbusTest1.client[1] hasGn false
par ModbusTest1.client[1] forwarding false
par ModbusTest1.client[1] multicastForwarding false
par ModbusTest1.client[1] hasUdp true
par ModbusTest1.client[1] hasTcp true
par ModbusTest1.client[1] hasSctp false
par ModbusTest1.client[1] numApps 1
par ModbusTest1.client[1] hasTimeSynchronization false
par ModbusTest1.client[1] hasIngressTrafficFiltering false
par ModbusTest1.client[1] hasEgressTrafficFiltering false
par ModbusTest1.client[1] hasEgressTrafficShaping false
par ModbusTest1.client[1] hasStreamRedundancy false
par ModbusTest1.client[1] hasIncomingStreams false
par ModbusTest1.client[1] hasOutgoingStreams false
par ModbusTest1.client[1] hasFramePreemption false
par ModbusTest1.client[1] hasCutthroughSwitching false
par ModbusTest1 typename "\"ModbusTest1\""
par ModbusTest1 recordPcap false
par ModbusTest1 numPcapRecorders 0
par ModbusTest1 hasGlobalArp true
par ModbusTest1 numClients 2

