file 3533646 1762075837                                         
version 3
run HardInLoop-0-20251102-17:28:35-26568
attr configname HardInLoop
attr datetime 20251102-17:28:35
attr datetimef 20251102-172835
attr experiment HardInLoop
attr inifile omnetpp.ini
attr iterationvars ""
attr iterationvarsd ""
attr iterationvarsf ""
attr measurement ""
attr network ModbusTest1
attr processid 26568
attr repetition 0
attr replication #0
attr resultdir results
attr runnumber 0
attr seedset 0
config image-path ../../inet4.5/images
config scheduler-class inet::RealTimeScheduler
config *.client[0].numApps 1
config *.client[0].app[0].typename ModbusSlaveHILApp
config *.client[0].app[0].localPort 502
config *.client[0].app[0].remoteAddress "\"222.197.175.127\""
config *.client[0].app[0].remotePort 502
config *.client[*].numApps 1
config *.client[*].app[0].typename ModbusSlaveApp
config *.client[*].app[0].localPort 502
config *.client[*].app[0].slavesConfigPath "\"SlaveConfig.json\""
config network ModbusTest1
config sim-time-limit 20s
config *.*.eth[*].bitrate 100Mbps
config *.numClients 2
config *.operatorStation.numApps 2
config *.operatorStation.app[0].typename OperatorStationApp
config *.operatorStation.app[0].connectAddress "\"server\""
config *.operatorStation.app[0].connectPort 1000
config *.operatorStation.app[0].interval 0.5s
config *.operatorStation.app[1].typename OperatorStationApp2
config *.operatorStation.app[1].connectAddress "\"server\""
config *.operatorStation.app[1].connectPort 666
config *.operatorStation.app[1].modbusRequest "\"client[0] 01 10 000B 0009 00 01 00 02 00 03 00 04 00 05 00 06 00 07 00 08 00 09\""
config *.operatorStation.app[1].sendTime 4s
config *.server.numApps 3
config *.server.app[0].typename ModbusMasterApp
config *.server.app[0].numConnect 2
config *.server.app[0].configFile "\"MasterConfig.json\""
config *.server.app[0].readInterval 0.5s
config *.server.app[1].typename ModbusTcpServerApp
config *.server.app[1].localPort 1000
config *.server.app[2].typename TransitApp
config *.server.app[2].localPort 666
config **.tcp.typename Tcp
config **.tcp.advertisedWindow 65535
config **.tcp.delayedAcksEnabled false
config **.tcp.nagleEnabled false
config **.tcp.limitedTransmitEnabled true
config **.tcp.increasedIWEnabled true
config **.tcp.sackSupport true
config **.tcp.windowScalingSupport true
config **.tcp.timestampSupport true
config **.tcp.mss 1452
config **.tcp.tcpAlgorithmClass "\"TcpReno\""
config **.crcMode "\"computed\""
config **.fcsMode "\"computed\""
config *.server.numPcapRecorders 1
config *.server.pcapRecorder[*].pcapFile "\"results/server.pcap\""
config *.visualizer.interfaceTableVisualizer.displayInterfaceTables true

vector 0 ModbusTest1.operatorStation.ethernet.macHeaderInserter incomingPacketLengths:vector ETV
attr interpolationmode none
attr recordingmode vector
attr source "packetLength(merge(packetPushedIn, packetPulledIn))"
attr title "incoming packet lengths"
attr unit b
vector 1 ModbusTest1.operatorStation.ethernet.macHeaderInserter incomingDataRate:vector ETV
attr interpolationmode linear
attr recordingmode vector
attr source "throughput(merge(packetPushedIn, packetPulledIn))"
attr title "incoming data rate"
attr unit bps
vector 2 ModbusTest1.operatorStation.ethernet.macHeaderInserter outgoingPacketLengths:vector ETV
attr interpolationmode none
attr recordingmode vector
attr source "packetLength(merge(packetPushedOut, packetPulledOut))"
attr title "outgoing packet lengths"
attr unit b
vector 3 ModbusTest1.operatorStation.ethernet.macHeaderInserter outgoingDataRate:vector ETV
attr interpolationmode linear
attr recordingmode vector
attr source "throughput(merge(packetPushedOut, packetPulledOut))"
attr title "outgoing data rate"
attr unit bps
vector 4 ModbusTest1.operatorStation.ethernet.macHeaderInserter flowIncomingPacketLengths:vector ETV
attr interpolationmode none
attr recordingmode vector
attr source "packetLength(demuxFlow(merge(packetPushedIn, packetPulledIn)))"
attr title "flow specific incoming packet lengths"
attr unit b
vector 5 ModbusTest1.operatorStation.ethernet.macHeaderInserter flowIncomingDataRate:vector ETV
attr interpolationmode linear
attr recordingmode vector
attr source "throughput(demuxFlow(merge(packetPushedIn, packetPulledIn)))"
attr title "flow specific incoming data rate"
attr unit bps
vector 6 ModbusTest1.operatorStation.ethernet.macHeaderInserter flowOutgoingPacketLengths:vector ETV
attr interpolationmode none
attr recordingmode vector
attr source "packetLength(demuxFlow(merge(packetPushedOut, packetPulledOut)))"
attr title "flow specific outgoing packet lengths"
attr unit b
vector 7 ModbusTest1.operatorStation.ethernet.macHeaderInserter flowOutgoingDataRate:vector ETV
attr interpolationmode linear
attr recordingmode vector
attr source "throughput(demuxFlow(merge(packetPushedOut, packetPulledOut)))"
attr title "flow specific outgoing data rate"
attr unit bps
vector 8 ModbusTest1.operatorStation.ethernet.paddingInserter incomingPacketLengths:vector ETV
attr interpolationmode none
attr recordingmode vector
attr source "packetLength(merge(packetPushedIn, packetPulledIn))"
attr title "incoming packet lengths"
attr unit b
vector 9 ModbusTest1.operatorStation.ethernet.paddingInserter incomingDataRate:vector ETV
attr interpolationmode linear
attr recordingmode vector
attr source "throughput(merge(packetPushedIn, packetPulledIn))"
attr title "incoming data rate"
attr unit bps
vector 10 ModbusTest1.operatorStation.ethernet.paddingInserter outgoingPacketLengths:vector ETV
attr interpolationmode none
attr recordingmode vector
attr source "packetLength(merge(packetPushedOut, packetPulledOut))"
attr title "outgoing packet lengths"
attr unit b
vector 11 ModbusTest1.operatorStation.ethernet.paddingInserter outgoingDataRate:vector ETV
attr interpolationmode linear
attr recordingmode vector
attr source "throughput(merge(packetPushedOut, packetPulledOut))"
attr title "outgoing data rate"
attr unit bps
vector 12 ModbusTest1.operatorStation.ethernet.paddingInserter flowIncomingPacketLengths:vector ETV
attr interpolationmode none
attr recordingmode vector
attr source "packetLength(demuxFlow(merge(packetPushedIn, packetPulledIn)))"
attr title "flow specific incoming packet lengths"
attr unit b
vector 13 ModbusTest1.operatorStation.ethernet.paddingInserter flowIncomingDataRate:vector ETV
attr interpolationmode linear
attr recordingmode vector
attr source "throughput(demuxFlow(merge(packetPushedIn, packetPulledIn)))"
attr title "flow specific incoming data rate"
attr unit bps
vector 14 ModbusTest1.operatorStation.ethernet.paddingInserter flowOutgoingPacketLengths:vector ETV
attr interpolationmode none
attr recordingmode vector
attr source "packetLength(demuxFlow(merge(packetPushedOut, packetPulledOut)))"
attr title "flow specific outgoing packet lengths"
attr unit b
vector 15 ModbusTest1.operatorStation.ethernet.paddingInserter flowOutgoingDataRate:vector ETV
attr interpolationmode linear
attr recordingmode vector
attr source "throughput(demuxFlow(merge(packetPushedOut, packetPulledOut)))"
attr title "flow specific outgoing data rate"
attr unit bps
vector 16 ModbusTest1.operatorStation.ethernet.fcsInserter incomingPacketLengths:vector ETV
attr interpolationmode none
attr recordingmode vector
attr source "packetLength(merge(packetPushedIn, packetPulledIn))"
attr title "incoming packet lengths"
attr unit b
vector 17 ModbusTest1.operatorStation.ethernet.fcsInserter incomingDataRate:vector ETV
attr interpolationmode linear
attr recordingmode vector
attr source "throughput(merge(packetPushedIn, packetPulledIn))"
attr title "incoming data rate"
attr unit bps
vector 18 ModbusTest1.operatorStation.ethernet.fcsInserter outgoingPacketLengths:vector ETV
attr interpolationmode none
attr recordingmode vector
attr source "packetLength(merge(packetPushedOut, packetPulledOut))"
attr title "outgoing packet lengths"
attr unit b
vector 19 ModbusTest1.operatorStation.ethernet.fcsInserter outgoingDataRate:vector ETV
attr interpolationmode linear
attr recordingmode vector
attr source "throughput(merge(packetPushedOut, packetPulledOut))"
attr title "outgoing data rate"
attr unit bps
vector 20 ModbusTest1.operatorStation.ethernet.fcsInserter flowIncomingPacketLengths:vector ETV
attr interpolationmode none
attr recordingmode vector
attr source "packetLength(demuxFlow(merge(packetPushedIn, packetPulledIn)))"
attr title "flow specific incoming packet lengths"
attr unit b
vector 21 ModbusTest1.operatorStation.ethernet.fcsInserter flowIncomingDataRate:vector ETV
attr interpolationmode linear
attr recordingmode vector
attr source "throughput(demuxFlow(merge(packetPushedIn, packetPulledIn)))"
attr title "flow specific incoming data rate"
attr unit bps
vector 22 ModbusTest1.operatorStation.ethernet.fcsInserter flowOutgoingPacketLengths:vector ETV
attr interpolationmode none
attr recordingmode vector
attr source "packetLength(demuxFlow(merge(packetPushedOut, packetPulledOut)))"
attr title "flow specific outgoing packet lengths"
attr unit b
vector 23 ModbusTest1.operatorStation.ethernet.fcsInserter flowOutgoingDataRate:vector ETV
attr interpolationmode linear
attr recordingmode vector
attr source "throughput(demuxFlow(merge(packetPushedOut, packetPulledOut)))"
attr title "flow specific outgoing data rate"
attr unit bps
vector 24 ModbusTest1.operatorStation.ethernet.macHeaderChecker incomingPacketLengths:vector ETV
attr interpolationmode none
attr recordingmode vector
attr source "packetLength(merge(packetPushedIn, packetPulledIn))"
attr title "incoming packet lengths"
attr unit b
vector 25 ModbusTest1.operatorStation.ethernet.macHeaderChecker incomingDataRate:vector ETV
attr interpolationmode linear
attr recordingmode vector
attr source "throughput(merge(packetPushedIn, packetPulledIn))"
attr title "incoming data rate"
attr unit bps
vector 26 ModbusTest1.operatorStation.ethernet.macHeaderChecker outgoingPacketLengths:vector ETV
attr interpolationmode none
attr recordingmode vector
attr source "packetLength(merge(packetPushedOut, packetPulledOut))"
attr title "outgoing packet lengths"
attr unit b
vector 27 ModbusTest1.operatorStation.ethernet.macHeaderChecker outgoingDataRate:vector ETV
attr interpolationmode linear
attr recordingmode vector
attr source "throughput(merge(packetPushedOut, packetPulledOut))"
attr title "outgoing data rate"
attr unit bps
vector 28 ModbusTest1.operatorStation.ethernet.macHeaderChecker droppedPacketLengths:vector ETV
attr interpolationmode none
attr recordingmode vector
attr source packetLength(packetDropped)
attr title "dropped packet lengths"
attr unit b
vector 29 ModbusTest1.operatorStation.ethernet.macHeaderChecker droppedDataRate:vector ETV
attr interpolationmode linear
attr recordingmode vector
attr source throughput(packetDropped)
attr title "dropped data rate"
attr unit bps
vector 30 ModbusTest1.operatorStation.ethernet.macHeaderChecker flowIncomingPacketLengths:vector ETV
attr interpolationmode none
attr recordingmode vector
attr source "packetLength(demuxFlow(merge(packetPushedIn, packetPulledIn)))"
attr title "flow specific incoming packet lengths"
attr unit b
vector 31 ModbusTest1.operatorStation.ethernet.macHeaderChecker flowIncomingDataRate:vector ETV
attr interpolationmode linear
attr recordingmode vector
attr source "throughput(demuxFlow(merge(packetPushedIn, packetPulledIn)))"
attr title "flow specific incoming data rate"
attr unit bps
vector 32 ModbusTest1.operatorStation.ethernet.macHeaderChecker flowOutgoingPacketLengths:vector ETV
attr interpolationmode none
attr recordingmode vector
attr source "packetLength(demuxFlow(merge(packetPushedOut, packetPulledOut)))"
attr title "flow specific outgoing packet lengths"
attr unit b
vector 33 ModbusTest1.operatorStation.ethernet.macHeaderChecker flowOutgoingDataRate:vector ETV
attr interpolationmode linear
attr recordingmode vector
attr source "throughput(demuxFlow(merge(packetPushedOut, packetPulledOut)))"
attr title "flow specific outgoing data rate"
attr unit bps
vector 34 ModbusTest1.operatorStation.ethernet.macHeaderChecker flowDroppedPacketLengths:vector ETV
attr interpolationmode none
attr recordingmode vector
attr source packetLength(demuxFlow(packetDropped))
attr title "flow specific dropped packet lengths"
attr unit b
vector 35 ModbusTest1.operatorStation.ethernet.macHeaderChecker flowDroppedDataRate:vector ETV
attr interpolationmode linear
attr recordingmode vector
attr source throughput(demuxFlow(packetDropped))
attr title "flow specific dropped data rate"
attr unit bps
vector 36 ModbusTest1.operatorStation.ethernet.fcsChecker incomingPacketLengths:vector ETV
attr interpolationmode none
attr recordingmode vector
attr source "packetLength(merge(packetPushedIn, packetPulledIn))"
attr title "incoming packet lengths"
attr unit b
vector 37 ModbusTest1.operatorStation.ethernet.fcsChecker incomingDataRate:vector ETV
attr interpolationmode linear
attr recordingmode vector
attr source "throughput(merge(packetPushedIn, packetPulledIn))"
attr title "incoming data rate"
attr unit bps
vector 38 ModbusTest1.operatorStation.ethernet.fcsChecker outgoingPacketLengths:vector ETV
attr interpolationmode none
attr recordingmode vector
attr source "packetLength(merge(packetPushedOut, packetPulledOut))"
attr title "outgoing packet lengths"
attr unit b
vector 39 ModbusTest1.operatorStation.ethernet.fcsChecker outgoingDataRate:vector ETV
attr interpolationmode linear
attr recordingmode vector
attr source "throughput(merge(packetPushedOut, packetPulledOut))"
attr title "outgoing data rate"
attr unit bps
vector 40 ModbusTest1.operatorStation.ethernet.fcsChecker droppedPacketLengths:vector ETV
attr interpolationmode none
attr recordingmode vector
attr source packetLength(packetDropped)
attr title "dropped packet lengths"
attr unit b
vector 41 ModbusTest1.operatorStation.ethernet.fcsChecker droppedDataRate:vector ETV
attr interpolationmode linear
attr recordingmode vector
attr source throughput(packetDropped)
attr title "dropped data rate"
attr unit bps
vector 42 ModbusTest1.operatorStation.ethernet.fcsChecker flowIncomingPacketLengths:vector ETV
attr interpolationmode none
attr recordingmode vector
attr source "packetLength(demuxFlow(merge(packetPushedIn, packetPulledIn)))"
attr title "flow specific incoming packet lengths"
attr unit b
vector 43 ModbusTest1.operatorStation.ethernet.fcsChecker flowIncomingDataRate:vector ETV
attr interpolationmode linear
attr recordingmode vector
attr source "throughput(demuxFlow(merge(packetPushedIn, packetPulledIn)))"
attr title "flow specific incoming data rate"
attr unit bps
vector 44 ModbusTest1.operatorStation.ethernet.fcsChecker flowOutgoingPacketLengths:vector ETV
attr interpolationmode none
attr recordingmode vector
attr source "packetLength(demuxFlow(merge(packetPushedOut, packetPulledOut)))"
attr title "flow specific outgoing packet lengths"
attr unit b
vector 45 ModbusTest1.operatorStation.ethernet.fcsChecker flowOutgoingDataRate:vector ETV
attr interpolationmode linear
attr recordingmode vector
attr source "throughput(demuxFlow(merge(packetPushedOut, packetPulledOut)))"
attr title "flow specific outgoing data rate"
attr unit bps
vector 46 ModbusTest1.operatorStation.ethernet.fcsChecker flowDroppedPacketLengths:vector ETV
attr interpolationmode none
attr recordingmode vector
attr source packetLength(demuxFlow(packetDropped))
attr title "flow specific dropped packet lengths"
attr unit b
vector 47 ModbusTest1.operatorStation.ethernet.fcsChecker flowDroppedDataRate:vector ETV
attr interpolationmode linear
attr recordingmode vector
attr source throughput(demuxFlow(packetDropped))
attr title "flow specific dropped data rate"
attr unit bps
vector 48 ModbusTest1.operatorStation.lo[0].lo rcvdPkFromHl:vector(packetBytes) ETV
attr interpolationmode none
attr recordingmode vector(packetBytes)
attr source packetReceivedFromUpper
attr title "packets received from higher layer, packetBytes"
vector 49 ModbusTest1.operatorStation.lo[0].lo passedUpPk:vector(packetBytes) ETV
attr interpolationmode none
attr recordingmode vector(packetBytes)
attr source packetSentToUpper
attr title "packets passed to higher layer, packetBytes"
vector 50 ModbusTest1.operatorStation.lo[0] packetDropInterfaceDown:vector(packetBytes) ETV
attr interpolationmode none
attr recordingmode vector(packetBytes)
attr source packetDropReasonIsInterfaceDown(packetDropped)
attr title "packet drops: interface down, packetBytes"
vector 51 ModbusTest1.operatorStation.lo[0] packetDropNoCarrier:vector(packetBytes) ETV
attr interpolationmode none
attr recordingmode vector(packetBytes)
attr source packetDropReasonIsNoCarrier(packetDropped)
attr title "packet drops: no carrier, packetBytes"
vector 52 ModbusTest1.operatorStation.eth[0].macLayer.queue queueLength:vector ETV
attr autoWarmupFilter false
attr interpolationmode sample-hold
attr recordingmode vector
attr source "warmup(atomic(constant0(packetPushEnded) + count(packetPushStarted) - count(packetPulled) - count(packetRemoved) - count(packetDropped)))"
attr title "queue length"
attr unit pk
vector 53 ModbusTest1.operatorStation.eth[0].macLayer.queue queueBitLength:vector ETV
attr autoWarmupFilter false
attr interpolationmode sample-hold
attr recordingmode vector
attr source "warmup(atomic(constant0(packetPushEnded) + sum(packetLength(packetPushStarted)) - sum(packetLength(packetPulled)) - sum(packetLength(packetRemoved)) - sum(packetLength(packetDropped))))"
attr title "queue bit length"
attr unit b
vector 54 ModbusTest1.operatorStation.eth[0].macLayer.queue queueingTime:vector ETV
attr interpolationmode none
attr recordingmode vector
attr source queueingTime(packetPulled)
attr title "queueing times"
attr unit s
vector 55 ModbusTest1.operatorStation.eth[0].macLayer.queue incomingPacketLengths:vector ETV
attr interpolationmode none
attr recordingmode vector
attr source packetLength(packetPushStarted)
attr title "incoming packet lengths"
attr unit b
vector 56 ModbusTest1.operatorStation.eth[0].macLayer.queue incomingDataRate:vector ETV
attr interpolationmode linear
attr recordingmode vector
attr source throughput(packetPushStarted)
attr title "incoming datarate"
attr unit bps
vector 57 ModbusTest1.operatorStation.eth[0].macLayer.queue outgoingPacketLengths:vector ETV
attr interpolationmode none
attr recordingmode vector
attr source packetLength(packetPulled)
attr title "outgoing packet lengths"
attr unit b
vector 58 ModbusTest1.operatorStation.eth[0].macLayer.queue outgoingDataRate:vector ETV
attr interpolationmode linear
attr recordingmode vector
attr source throughput(packetPulled)
attr title "outgoing datarate"
attr unit bps
vector 59 ModbusTest1.operatorStation.eth[0].macLayer.queue droppedPacketLengthsQueueOverflow:vector ETV
attr interpolationmode none
attr recordingmode vector
attr source packetLength(packetDropReasonIsQueueOverflow(packetDropped))
attr title "dropped packet lengths: queue overflow"
attr unit b
vector 60 ModbusTest1.operatorStation.eth[0].macLayer.queue flowQueueingTime:vector ETV
attr interpolationmode none
attr recordingmode vector
attr source queueingTime(demuxFlow(packetPulled))
attr title "flow queueing times"
attr unit s
vector 61 ModbusTest1.operatorStation.eth[0].macLayer.queue flowIncomingDataRate:vector ETV
attr interpolationmode linear
attr recordingmode vector
attr source throughput(flowPacketLength(demuxFlow(packetPushStarted)))
attr title "flow specific incoming data rate"
attr unit bps
vector 62 ModbusTest1.operatorStation.eth[0].macLayer.queue flowOutgoingDataRate:vector ETV
attr interpolationmode linear
attr recordingmode vector
attr source throughput(flowPacketLength(demuxFlow(packetPulled)))
attr title "flow specific outgoing data rate"
attr unit bps
vector 63 ModbusTest1.operatorStation.eth[0].macLayer.server incomingPacketLengths:vector ETV
attr interpolationmode none
attr recordingmode vector
attr source packetLength(packetPulled)
attr title "incoming packet lengths"
attr unit b
vector 64 ModbusTest1.operatorStation.eth[0].macLayer.server incomingDataRate:vector ETV
attr interpolationmode linear
attr recordingmode vector
attr source throughput(packetPulled)
attr title "incoming datarate"
attr unit bps
vector 65 ModbusTest1.operatorStation.eth[0].macLayer.server outgoingPacketLengths:vector ETV
attr interpolationmode none
attr recordingmode vector
attr source packetLength(packetPushed)
attr title "outgoing packet lengths"
attr unit b
vector 66 ModbusTest1.operatorStation.eth[0].macLayer.server outgoingDataRate:vector ETV
attr interpolationmode linear
attr recordingmode vector
attr source throughput(packetPushed)
attr title "outgoing datarate"
attr unit bps
vector 67 ModbusTest1.operatorStation.eth[0].macLayer.outboundEmitter incomingPacketLengths:vector ETV
attr interpolationmode none
attr recordingmode vector
attr source "packetLength(merge(packetPushedIn, packetPulledIn))"
attr title "incoming packet lengths"
attr unit b
vector 68 ModbusTest1.operatorStation.eth[0].macLayer.outboundEmitter incomingDataRate:vector ETV
attr interpolationmode linear
attr recordingmode vector
attr source "throughput(merge(packetPushedIn, packetPulledIn))"
attr title "incoming data rate"
attr unit bps
vector 69 ModbusTest1.operatorStation.eth[0].macLayer.outboundEmitter outgoingPacketLengths:vector ETV
attr interpolationmode none
attr recordingmode vector
attr source "packetLength(merge(packetPushedOut, packetPulledOut))"
attr title "outgoing packet lengths"
attr unit b
vector 70 ModbusTest1.operatorStation.eth[0].macLayer.outboundEmitter outgoingDataRate:vector ETV
attr interpolationmode linear
attr recordingmode vector
attr source "throughput(merge(packetPushedOut, packetPulledOut))"
attr title "outgoing data rate"
attr unit bps
vector 71 ModbusTest1.operatorStation.eth[0].macLayer.outboundEmitter flowIncomingPacketLengths:vector ETV
attr interpolationmode none
attr recordingmode vector
attr source "packetLength(demuxFlow(merge(packetPushedIn, packetPulledIn)))"
attr title "flow specific incoming packet lengths"
attr unit b
vector 72 ModbusTest1.operatorStation.eth[0].macLayer.outboundEmitter flowIncomingDataRate:vector ETV
attr interpolationmode linear
attr recordingmode vector
attr source "throughput(demuxFlow(merge(packetPushedIn, packetPulledIn)))"
attr title "flow specific incoming data rate"
attr unit bps
vector 73 ModbusTest1.operatorStation.eth[0].macLayer.outboundEmitter flowOutgoingPacketLengths:vector ETV
attr interpolationmode none
attr recordingmode vector
attr source "packetLength(demuxFlow(merge(packetPushedOut, packetPulledOut)))"
attr title "flow specific outgoing packet lengths"
attr unit b
vector 74 ModbusTest1.operatorStation.eth[0].macLayer.outboundEmitter flowOutgoingDataRate:vector ETV
attr interpolationmode linear
attr recordingmode vector
attr source "throughput(demuxFlow(merge(packetPushedOut, packetPulledOut)))"
attr title "flow specific outgoing data rate"
attr unit bps
vector 75 ModbusTest1.operatorStation.eth[0].macLayer.fcsChecker incomingPacketLengths:vector ETV
attr interpolationmode none
attr recordingmode vector
attr source "packetLength(merge(packetPushedIn, packetPulledIn))"
attr title "incoming packet lengths"
attr unit b
vector 76 ModbusTest1.operatorStation.eth[0].macLayer.fcsChecker incomingDataRate:vector ETV
attr interpolationmode linear
attr recordingmode vector
attr source "throughput(merge(packetPushedIn, packetPulledIn))"
attr title "incoming data rate"
attr unit bps
vector 77 ModbusTest1.operatorStation.eth[0].macLayer.fcsChecker outgoingPacketLengths:vector ETV
attr interpolationmode none
attr recordingmode vector
attr source "packetLength(merge(packetPushedOut, packetPulledOut))"
attr title "outgoing packet lengths"
attr unit b
vector 78 ModbusTest1.operatorStation.eth[0].macLayer.fcsChecker outgoingDataRate:vector ETV
attr interpolationmode linear
attr recordingmode vector
attr source "throughput(merge(packetPushedOut, packetPulledOut))"
attr title "outgoing data rate"
attr unit bps
vector 79 ModbusTest1.operatorStation.eth[0].macLayer.fcsChecker droppedPacketLengths:vector ETV
attr interpolationmode none
attr recordingmode vector
attr source packetLength(packetDropped)
attr title "dropped packet lengths"
attr unit b
vector 80 ModbusTest1.operatorStation.eth[0].macLayer.fcsChecker droppedDataRate:vector ETV
attr interpolationmode linear
attr recordingmode vector
attr source throughput(packetDropped)
attr title "dropped data rate"
attr unit bps
vector 81 ModbusTest1.operatorStation.eth[0].macLayer.fcsChecker flowIncomingPacketLengths:vector ETV
attr interpolationmode none
attr recordingmode vector
attr source "packetLength(demuxFlow(merge(packetPushedIn, packetPulledIn)))"
attr title "flow specific incoming packet lengths"
attr unit b
vector 82 ModbusTest1.operatorStation.eth[0].macLayer.fcsChecker flowIncomingDataRate:vector ETV
attr interpolationmode linear
attr recordingmode vector
attr source "throughput(demuxFlow(merge(packetPushedIn, packetPulledIn)))"
attr title "flow specific incoming data rate"
attr unit bps
vector 83 ModbusTest1.operatorStation.eth[0].macLayer.fcsChecker flowOutgoingPacketLengths:vector ETV
attr interpolationmode none
attr recordingmode vector
attr source "packetLength(demuxFlow(merge(packetPushedOut, packetPulledOut)))"
attr title "flow specific outgoing packet lengths"
attr unit b
vector 84 ModbusTest1.operatorStation.eth[0].macLayer.fcsChecker flowOutgoingDataRate:vector ETV
attr interpolationmode linear
attr recordingmode vector
attr source "throughput(demuxFlow(merge(packetPushedOut, packetPulledOut)))"
attr title "flow specific outgoing data rate"
attr unit bps
vector 85 ModbusTest1.operatorStation.eth[0].macLayer.fcsChecker flowDroppedPacketLengths:vector ETV
attr interpolationmode none
attr recordingmode vector
attr source packetLength(demuxFlow(packetDropped))
attr title "flow specific dropped packet lengths"
attr unit b
vector 86 ModbusTest1.operatorStation.eth[0].macLayer.fcsChecker flowDroppedDataRate:vector ETV
attr interpolationmode linear
attr recordingmode vector
attr source throughput(demuxFlow(packetDropped))
attr title "flow specific dropped data rate"
attr unit bps
vector 87 ModbusTest1.operatorStation.eth[0].macLayer.inboundEmitter incomingPacketLengths:vector ETV
attr interpolationmode none
attr recordingmode vector
attr source "packetLength(merge(packetPushedIn, packetPulledIn))"
attr title "incoming packet lengths"
attr unit b
vector 88 ModbusTest1.operatorStation.eth[0].macLayer.inboundEmitter incomingDataRate:vector ETV
attr interpolationmode linear
attr recordingmode vector
attr source "throughput(merge(packetPushedIn, packetPulledIn))"
attr title "incoming data rate"
attr unit bps
vector 89 ModbusTest1.operatorStation.eth[0].macLayer.inboundEmitter outgoingPacketLengths:vector ETV
attr interpolationmode none
attr recordingmode vector
attr source "packetLength(merge(packetPushedOut, packetPulledOut))"
attr title "outgoing packet lengths"
attr unit b
vector 90 ModbusTest1.operatorStation.eth[0].macLayer.inboundEmitter outgoingDataRate:vector ETV
attr interpolationmode linear
attr recordingmode vector
attr source "throughput(merge(packetPushedOut, packetPulledOut))"
attr title "outgoing data rate"
attr unit bps
vector 91 ModbusTest1.operatorStation.eth[0].macLayer.inboundEmitter flowIncomingPacketLengths:vector ETV
attr interpolationmode none
attr recordingmode vector
attr source "packetLength(demuxFlow(merge(packetPushedIn, packetPulledIn)))"
attr title "flow specific incoming packet lengths"
attr unit b
vector 92 ModbusTest1.operatorStation.eth[0].macLayer.inboundEmitter flowIncomingDataRate:vector ETV
attr interpolationmode linear
attr recordingmode vector
attr source "throughput(demuxFlow(merge(packetPushedIn, packetPulledIn)))"
attr title "flow specific incoming data rate"
attr unit bps
vector 93 ModbusTest1.operatorStation.eth[0].macLayer.inboundEmitter flowOutgoingPacketLengths:vector ETV
attr interpolationmode none
attr recordingmode vector
attr source "packetLength(demuxFlow(merge(packetPushedOut, packetPulledOut)))"
attr title "flow specific outgoing packet lengths"
attr unit b
vector 94 ModbusTest1.operatorStation.eth[0].macLayer.inboundEmitter flowOutgoingDataRate:vector ETV
attr interpolationmode linear
attr recordingmode vector
attr source "throughput(demuxFlow(merge(packetPushedOut, packetPulledOut)))"
attr title "flow specific outgoing data rate"
attr unit bps
vector 95 ModbusTest1.operatorStation.eth[0].phyLayer.phyHeaderInserter incomingPacketLengths:vector ETV
attr interpolationmode none
attr recordingmode vector
attr source "packetLength(merge(packetPushedIn, packetPulledIn))"
attr title "incoming packet lengths"
attr unit b
vector 96 ModbusTest1.operatorStation.eth[0].phyLayer.phyHeaderInserter incomingDataRate:vector ETV
attr interpolationmode linear
attr recordingmode vector
attr source "throughput(merge(packetPushedIn, packetPulledIn))"
attr title "incoming data rate"
attr unit bps
vector 97 ModbusTest1.operatorStation.eth[0].phyLayer.phyHeaderInserter outgoingPacketLengths:vector ETV
attr interpolationmode none
attr recordingmode vector
attr source "packetLength(merge(packetPushedOut, packetPulledOut))"
attr title "outgoing packet lengths"
attr unit b
vector 98 ModbusTest1.operatorStation.eth[0].phyLayer.phyHeaderInserter outgoingDataRate:vector ETV
attr interpolationmode linear
attr recordingmode vector
attr source "throughput(merge(packetPushedOut, packetPulledOut))"
attr title "outgoing data rate"
attr unit bps
vector 99 ModbusTest1.operatorStation.eth[0].phyLayer.phyHeaderInserter flowIncomingPacketLengths:vector ETV
attr interpolationmode none
attr recordingmode vector
attr source "packetLength(demuxFlow(merge(packetPushedIn, packetPulledIn)))"
attr title "flow specific incoming packet lengths"
attr unit b
vector 100 ModbusTest1.operatorStation.eth[0].phyLayer.phyHeaderInserter flowIncomingDataRate:vector ETV
attr interpolationmode linear
attr recordingmode vector
attr source "throughput(demuxFlow(merge(packetPushedIn, packetPulledIn)))"
attr title "flow specific incoming data rate"
attr unit bps
vector 101 ModbusTest1.operatorStation.eth[0].phyLayer.phyHeaderInserter flowOutgoingPacketLengths:vector ETV
attr interpolationmode none
attr recordingmode vector
attr source "packetLength(demuxFlow(merge(packetPushedOut, packetPulledOut)))"
attr title "flow specific outgoing packet lengths"
attr unit b
vector 102 ModbusTest1.operatorStation.eth[0].phyLayer.phyHeaderInserter flowOutgoingDataRate:vector ETV
attr interpolationmode linear
attr recordingmode vector
attr source "throughput(demuxFlow(merge(packetPushedOut, packetPulledOut)))"
attr title "flow specific outgoing data rate"
attr unit bps
vector 103 ModbusTest1.operatorStation.eth[0].phyLayer.interFrameGapInserter interpacketGap:vector ETV
attr interpolationmode sample-hold
attr recordingmode vector
attr source "count(interpacketGapStarted) - count(interpacketGapEnded)"
attr title "interpacket gap state"
attr type int
vector 104 ModbusTest1.operatorStation.eth[0].phyLayer.outboundEmitter incomingPacketLengths:vector ETV
attr interpolationmode none
attr recordingmode vector
attr source "packetLength(merge(packetPushedIn, packetPulledIn))"
attr title "incoming packet lengths"
attr unit b
vector 105 ModbusTest1.operatorStation.eth[0].phyLayer.outboundEmitter incomingDataRate:vector ETV
attr interpolationmode linear
attr recordingmode vector
attr source "throughput(merge(packetPushedIn, packetPulledIn))"
attr title "incoming data rate"
attr unit bps
vector 106 ModbusTest1.operatorStation.eth[0].phyLayer.outboundEmitter outgoingPacketLengths:vector ETV
attr interpolationmode none
attr recordingmode vector
attr source "packetLength(merge(packetPushedOut, packetPulledOut))"
attr title "outgoing packet lengths"
attr unit b
vector 107 ModbusTest1.operatorStation.eth[0].phyLayer.outboundEmitter outgoingDataRate:vector ETV
attr interpolationmode linear
attr recordingmode vector
attr source "throughput(merge(packetPushedOut, packetPulledOut))"
attr title "outgoing data rate"
attr unit bps
vector 108 ModbusTest1.operatorStation.eth[0].phyLayer.outboundEmitter flowIncomingPacketLengths:vector ETV
attr interpolationmode none
attr recordingmode vector
attr source "packetLength(demuxFlow(merge(packetPushedIn, packetPulledIn)))"
attr title "flow specific incoming packet lengths"
attr unit b
vector 109 ModbusTest1.operatorStation.eth[0].phyLayer.outboundEmitter flowIncomingDataRate:vector ETV
attr interpolationmode linear
attr recordingmode vector
attr source "throughput(demuxFlow(merge(packetPushedIn, packetPulledIn)))"
attr title "flow specific incoming data rate"
attr unit bps
vector 110 ModbusTest1.operatorStation.eth[0].phyLayer.outboundEmitter flowOutgoingPacketLengths:vector ETV
attr interpolationmode none
attr recordingmode vector
attr source "packetLength(demuxFlow(merge(packetPushedOut, packetPulledOut)))"
attr title "flow specific outgoing packet lengths"
attr unit b
vector 111 ModbusTest1.operatorStation.eth[0].phyLayer.outboundEmitter flowOutgoingDataRate:vector ETV
attr interpolationmode linear
attr recordingmode vector
attr source "throughput(demuxFlow(merge(packetPushedOut, packetPulledOut)))"
attr title "flow specific outgoing data rate"
attr unit bps
vector 112 ModbusTest1.operatorStation.eth[0].phyLayer.transmitter transmitting:vector ETV
attr interpolationmode sample-hold
attr recordingmode vector
attr source "count(transmissionStarted) - count(transmissionEnded)"
attr title "transmitting state"
attr type int
vector 113 ModbusTest1.operatorStation.eth[0].phyLayer.transmitter throughput:vector ETV
attr interpolationmode linear
attr recordingmode vector
attr source throughput(transmissionEnded)
attr title throughput
attr unit bps
vector 114 ModbusTest1.operatorStation.eth[0].phyLayer.transmitter utilization:vector ETV
attr interpolationmode linear
attr recordingmode vector
attr source "100 * utilization(count(transmissionStarted) - count(transmissionEnded))"
attr title utilization
attr unit %
vector 115 ModbusTest1.operatorStation.eth[0].phyLayer.transmitter transmissionTime:vector ETV
attr interpolationmode none
attr recordingmode vector
attr source packetDuration(transmissionEnded)
attr title "transmission time"
attr unit s
vector 116 ModbusTest1.operatorStation.eth[0].phyLayer.transmitter flowTransmissionTime:vector ETV
attr interpolationmode none
attr recordingmode vector
attr source packetDuration(demuxFlow(transmissionEnded))
attr title "flow transmission time"
attr unit s
vector 117 ModbusTest1.operatorStation.eth[0].phyLayer.phyHeaderChecker incomingPacketLengths:vector ETV
attr interpolationmode none
attr recordingmode vector
attr source "packetLength(merge(packetPushedIn, packetPulledIn))"
attr title "incoming packet lengths"
attr unit b
vector 118 ModbusTest1.operatorStation.eth[0].phyLayer.phyHeaderChecker incomingDataRate:vector ETV
attr interpolationmode linear
attr recordingmode vector
attr source "throughput(merge(packetPushedIn, packetPulledIn))"
attr title "incoming data rate"
attr unit bps
vector 119 ModbusTest1.operatorStation.eth[0].phyLayer.phyHeaderChecker outgoingPacketLengths:vector ETV
attr interpolationmode none
attr recordingmode vector
attr source "packetLength(merge(packetPushedOut, packetPulledOut))"
attr title "outgoing packet lengths"
attr unit b
vector 120 ModbusTest1.operatorStation.eth[0].phyLayer.phyHeaderChecker outgoingDataRate:vector ETV
attr interpolationmode linear
attr recordingmode vector
attr source "throughput(merge(packetPushedOut, packetPulledOut))"
attr title "outgoing data rate"
attr unit bps
vector 121 ModbusTest1.operatorStation.eth[0].phyLayer.phyHeaderChecker droppedPacketLengths:vector ETV
attr interpolationmode none
attr recordingmode vector
attr source packetLength(packetDropped)
attr title "dropped packet lengths"
attr unit b
vector 122 ModbusTest1.operatorStation.eth[0].phyLayer.phyHeaderChecker droppedDataRate:vector ETV
attr interpolationmode linear
attr recordingmode vector
attr source throughput(packetDropped)
attr title "dropped data rate"
attr unit bps
vector 123 ModbusTest1.operatorStation.eth[0].phyLayer.phyHeaderChecker flowIncomingPacketLengths:vector ETV
attr interpolationmode none
attr recordingmode vector
attr source "packetLength(demuxFlow(merge(packetPushedIn, packetPulledIn)))"
attr title "flow specific incoming packet lengths"
attr unit b
vector 124 ModbusTest1.operatorStation.eth[0].phyLayer.phyHeaderChecker flowIncomingDataRate:vector ETV
attr interpolationmode linear
attr recordingmode vector
attr source "throughput(demuxFlow(merge(packetPushedIn, packetPulledIn)))"
attr title "flow specific incoming data rate"
attr unit bps
vector 125 ModbusTest1.operatorStation.eth[0].phyLayer.phyHeaderChecker flowOutgoingPacketLengths:vector ETV
attr interpolationmode none
attr recordingmode vector
attr source "packetLength(demuxFlow(merge(packetPushedOut, packetPulledOut)))"
attr title "flow specific outgoing packet lengths"
attr unit b
vector 126 ModbusTest1.operatorStation.eth[0].phyLayer.phyHeaderChecker flowOutgoingDataRate:vector ETV
attr interpolationmode linear
attr recordingmode vector
attr source "throughput(demuxFlow(merge(packetPushedOut, packetPulledOut)))"
attr title "flow specific outgoing data rate"
attr unit bps
vector 127 ModbusTest1.operatorStation.eth[0].phyLayer.phyHeaderChecker flowDroppedPacketLengths:vector ETV
attr interpolationmode none
attr recordingmode vector
attr source packetLength(demuxFlow(packetDropped))
attr title "flow specific dropped packet lengths"
attr unit b
vector 128 ModbusTest1.operatorStation.eth[0].phyLayer.phyHeaderChecker flowDroppedDataRate:vector ETV
attr interpolationmode linear
attr recordingmode vector
attr source throughput(demuxFlow(packetDropped))
attr title "flow specific dropped data rate"
attr unit bps
vector 129 ModbusTest1.operatorStation.eth[0].phyLayer.inboundEmitter incomingPacketLengths:vector ETV
attr interpolationmode none
attr recordingmode vector
attr source "packetLength(merge(packetPushedIn, packetPulledIn))"
attr title "incoming packet lengths"
attr unit b
vector 130 ModbusTest1.operatorStation.eth[0].phyLayer.inboundEmitter incomingDataRate:vector ETV
attr interpolationmode linear
attr recordingmode vector
attr source "throughput(merge(packetPushedIn, packetPulledIn))"
attr title "incoming data rate"
attr unit bps
vector 131 ModbusTest1.operatorStation.eth[0].phyLayer.inboundEmitter outgoingPacketLengths:vector ETV
attr interpolationmode none
attr recordingmode vector
attr source "packetLength(merge(packetPushedOut, packetPulledOut))"
attr title "outgoing packet lengths"
attr unit b
vector 132 ModbusTest1.operatorStation.eth[0].phyLayer.inboundEmitter outgoingDataRate:vector ETV
attr interpolationmode linear
attr recordingmode vector
attr source "throughput(merge(packetPushedOut, packetPulledOut))"
attr title "outgoing data rate"
attr unit bps
vector 133 ModbusTest1.operatorStation.eth[0].phyLayer.inboundEmitter flowIncomingPacketLengths:vector ETV
attr interpolationmode none
attr recordingmode vector
attr source "packetLength(demuxFlow(merge(packetPushedIn, packetPulledIn)))"
attr title "flow specific incoming packet lengths"
attr unit b
vector 134 ModbusTest1.operatorStation.eth[0].phyLayer.inboundEmitter flowIncomingDataRate:vector ETV
attr interpolationmode linear
attr recordingmode vector
attr source "throughput(demuxFlow(merge(packetPushedIn, packetPulledIn)))"
attr title "flow specific incoming data rate"
attr unit bps
vector 135 ModbusTest1.operatorStation.eth[0].phyLayer.inboundEmitter flowOutgoingPacketLengths:vector ETV
attr interpolationmode none
attr recordingmode vector
attr source "packetLength(demuxFlow(merge(packetPushedOut, packetPulledOut)))"
attr title "flow specific outgoing packet lengths"
attr unit b
vector 136 ModbusTest1.operatorStation.eth[0].phyLayer.inboundEmitter flowOutgoingDataRate:vector ETV
attr interpolationmode linear
attr recordingmode vector
attr source "throughput(demuxFlow(merge(packetPushedOut, packetPulledOut)))"
attr title "flow specific outgoing data rate"
attr unit bps
vector 137 ModbusTest1.operatorStation.eth[0].phyLayer.receiver throughput:vector ETV
attr interpolationmode linear
attr recordingmode vector
attr source throughput(receptionEnded)
attr title throughput
attr unit bps
vector 138 ModbusTest1.operatorStation.eth[0].phyLayer.receiver receptionTime:vector ETV
attr interpolationmode none
attr recordingmode vector
attr source packetDuration(receptionEnded)
attr title "reception time"
attr unit s
vector 139 ModbusTest1.operatorStation.eth[0].phyLayer.receiver flowReceptionTime:vector ETV
attr interpolationmode none
attr recordingmode vector
attr source packetDuration(demuxFlow(receptionEnded))
attr title "flow reception time"
attr unit s
vector 140 ModbusTest1.operatorStation.eth[0] packetDropInterfaceDown:vector(packetBytes) ETV
attr interpolationmode none
attr recordingmode vector(packetBytes)
attr source packetDropReasonIsInterfaceDown(packetDropped)
attr title "packet drops: interface down, packetBytes"
vector 141 ModbusTest1.operatorStation.eth[0] packetDropNoCarrier:vector(packetBytes) ETV
attr interpolationmode none
attr recordingmode vector(packetBytes)
attr source packetDropReasonIsNoCarrier(packetDropped)
attr title "packet drops: no carrier, packetBytes"
vector 142 ModbusTest1.operatorStation.eth[1].macLayer.queue queueLength:vector ETV
attr autoWarmupFilter false
attr interpolationmode sample-hold
attr recordingmode vector
attr source "warmup(atomic(constant0(packetPushEnded) + count(packetPushStarted) - count(packetPulled) - count(packetRemoved) - count(packetDropped)))"
attr title "queue length"
attr unit pk
vector 143 ModbusTest1.operatorStation.eth[1].macLayer.queue queueBitLength:vector ETV
attr autoWarmupFilter false
attr interpolationmode sample-hold
attr recordingmode vector
attr source "warmup(atomic(constant0(packetPushEnded) + sum(packetLength(packetPushStarted)) - sum(packetLength(packetPulled)) - sum(packetLength(packetRemoved)) - sum(packetLength(packetDropped))))"
attr title "queue bit length"
attr unit b
vector 144 ModbusTest1.operatorStation.eth[1].macLayer.queue queueingTime:vector ETV
attr interpolationmode none
attr recordingmode vector
attr source queueingTime(packetPulled)
attr title "queueing times"
attr unit s
vector 145 ModbusTest1.operatorStation.eth[1].macLayer.queue incomingPacketLengths:vector ETV
attr interpolationmode none
attr recordingmode vector
attr source packetLength(packetPushStarted)
attr title "incoming packet lengths"
attr unit b
vector 146 ModbusTest1.operatorStation.eth[1].macLayer.queue incomingDataRate:vector ETV
attr interpolationmode linear
attr recordingmode vector
attr source throughput(packetPushStarted)
attr title "incoming datarate"
attr unit bps
vector 147 ModbusTest1.operatorStation.eth[1].macLayer.queue outgoingPacketLengths:vector ETV
attr interpolationmode none
attr recordingmode vector
attr source packetLength(packetPulled)
attr title "outgoing packet lengths"
attr unit b
vector 148 ModbusTest1.operatorStation.eth[1].macLayer.queue outgoingDataRate:vector ETV
attr interpolationmode linear
attr recordingmode vector
attr source throughput(packetPulled)
attr title "outgoing datarate"
attr unit bps
vector 149 ModbusTest1.operatorStation.eth[1].macLayer.queue droppedPacketLengthsQueueOverflow:vector ETV
attr interpolationmode none
attr recordingmode vector
attr source packetLength(packetDropReasonIsQueueOverflow(packetDropped))
attr title "dropped packet lengths: queue overflow"
attr unit b
vector 150 ModbusTest1.operatorStation.eth[1].macLayer.queue flowQueueingTime:vector ETV
attr interpolationmode none
attr recordingmode vector
attr source queueingTime(demuxFlow(packetPulled))
attr title "flow queueing times"
attr unit s
vector 151 ModbusTest1.operatorStation.eth[1].macLayer.queue flowIncomingDataRate:vector ETV
attr interpolationmode linear
attr recordingmode vector
attr source throughput(flowPacketLength(demuxFlow(packetPushStarted)))
attr title "flow specific incoming data rate"
attr unit bps
vector 152 ModbusTest1.operatorStation.eth[1].macLayer.queue flowOutgoingDataRate:vector ETV
attr interpolationmode linear
attr recordingmode vector
attr source throughput(flowPacketLength(demuxFlow(packetPulled)))
attr title "flow specific outgoing data rate"
attr unit bps
vector 153 ModbusTest1.operatorStation.eth[1].macLayer.server incomingPacketLengths:vector ETV
attr interpolationmode none
attr recordingmode vector
attr source packetLength(packetPulled)
attr title "incoming packet lengths"
attr unit b
vector 154 ModbusTest1.operatorStation.eth[1].macLayer.server incomingDataRate:vector ETV
attr interpolationmode linear
attr recordingmode vector
attr source throughput(packetPulled)
attr title "incoming datarate"
attr unit bps
vector 155 ModbusTest1.operatorStation.eth[1].macLayer.server outgoingPacketLengths:vector ETV
attr interpolationmode none
attr recordingmode vector
attr source packetLength(packetPushed)
attr title "outgoing packet lengths"
attr unit b
vector 156 ModbusTest1.operatorStation.eth[1].macLayer.server outgoingDataRate:vector ETV
attr interpolationmode linear
attr recordingmode vector
attr source throughput(packetPushed)
attr title "outgoing datarate"
attr unit bps
vector 157 ModbusTest1.operatorStation.eth[1].macLayer.outboundEmitter incomingPacketLengths:vector ETV
attr interpolationmode none
attr recordingmode vector
attr source "packetLength(merge(packetPushedIn, packetPulledIn))"
attr title "incoming packet lengths"
attr unit b
vector 158 ModbusTest1.operatorStation.eth[1].macLayer.outboundEmitter incomingDataRate:vector ETV
attr interpolationmode linear
attr recordingmode vector
attr source "throughput(merge(packetPushedIn, packetPulledIn))"
attr title "incoming data rate"
attr unit bps
vector 159 ModbusTest1.operatorStation.eth[1].macLayer.outboundEmitter outgoingPacketLengths:vector ETV
attr interpolationmode none
attr recordingmode vector
attr source "packetLength(merge(packetPushedOut, packetPulledOut))"
attr title "outgoing packet lengths"
attr unit b
vector 160 ModbusTest1.operatorStation.eth[1].macLayer.outboundEmitter outgoingDataRate:vector ETV
attr interpolationmode linear
attr recordingmode vector
attr source "throughput(merge(packetPushedOut, packetPulledOut))"
attr title "outgoing data rate"
attr unit bps
vector 161 ModbusTest1.operatorStation.eth[1].macLayer.outboundEmitter flowIncomingPacketLengths:vector ETV
attr interpolationmode none
attr recordingmode vector
attr source "packetLength(demuxFlow(merge(packetPushedIn, packetPulledIn)))"
attr title "flow specific incoming packet lengths"
attr unit b
vector 162 ModbusTest1.operatorStation.eth[1].macLayer.outboundEmitter flowIncomingDataRate:vector ETV
attr interpolationmode linear
attr recordingmode vector
attr source "throughput(demuxFlow(merge(packetPushedIn, packetPulledIn)))"
attr title "flow specific incoming data rate"
attr unit bps
vector 163 ModbusTest1.operatorStation.eth[1].macLayer.outboundEmitter flowOutgoingPacketLengths:vector ETV
attr interpolationmode none
attr recordingmode vector
attr source "packetLength(demuxFlow(merge(packetPushedOut, packetPulledOut)))"
attr title "flow specific outgoing packet lengths"
attr unit b
vector 164 ModbusTest1.operatorStation.eth[1].macLayer.outboundEmitter flowOutgoingDataRate:vector ETV
attr interpolationmode linear
attr recordingmode vector
attr source "throughput(demuxFlow(merge(packetPushedOut, packetPulledOut)))"
attr title "flow specific outgoing data rate"
attr unit bps
vector 165 ModbusTest1.operatorStation.eth[1].macLayer.fcsChecker incomingPacketLengths:vector ETV
attr interpolationmode none
attr recordingmode vector
attr source "packetLength(merge(packetPushedIn, packetPulledIn))"
attr title "incoming packet lengths"
attr unit b
vector 166 ModbusTest1.operatorStation.eth[1].macLayer.fcsChecker incomingDataRate:vector ETV
attr interpolationmode linear
attr recordingmode vector
attr source "throughput(merge(packetPushedIn, packetPulledIn))"
attr title "incoming data rate"
attr unit bps
vector 167 ModbusTest1.operatorStation.eth[1].macLayer.fcsChecker outgoingPacketLengths:vector ETV
attr interpolationmode none
attr recordingmode vector
attr source "packetLength(merge(packetPushedOut, packetPulledOut))"
attr title "outgoing packet lengths"
attr unit b
vector 168 ModbusTest1.operatorStation.eth[1].macLayer.fcsChecker outgoingDataRate:vector ETV
attr interpolationmode linear
attr recordingmode vector
attr source "throughput(merge(packetPushedOut, packetPulledOut))"
attr title "outgoing data rate"
attr unit bps
vector 169 ModbusTest1.operatorStation.eth[1].macLayer.fcsChecker droppedPacketLengths:vector ETV
attr interpolationmode none
attr recordingmode vector
attr source packetLength(packetDropped)
attr title "dropped packet lengths"
attr unit b
vector 170 ModbusTest1.operatorStation.eth[1].macLayer.fcsChecker droppedDataRate:vector ETV
attr interpolationmode linear
attr recordingmode vector
attr source throughput(packetDropped)
attr title "dropped data rate"
attr unit bps
vector 171 ModbusTest1.operatorStation.eth[1].macLayer.fcsChecker flowIncomingPacketLengths:vector ETV
attr interpolationmode none
attr recordingmode vector
attr source "packetLength(demuxFlow(merge(packetPushedIn, packetPulledIn)))"
attr title "flow specific incoming packet lengths"
attr unit b
vector 172 ModbusTest1.operatorStation.eth[1].macLayer.fcsChecker flowIncomingDataRate:vector ETV
attr interpolationmode linear
attr recordingmode vector
attr source "throughput(demuxFlow(merge(packetPushedIn, packetPulledIn)))"
attr title "flow specific incoming data rate"
attr unit bps
vector 173 ModbusTest1.operatorStation.eth[1].macLayer.fcsChecker flowOutgoingPacketLengths:vector ETV
attr interpolationmode none
attr recordingmode vector
attr source "packetLength(demuxFlow(merge(packetPushedOut, packetPulledOut)))"
attr title "flow specific outgoing packet lengths"
attr unit b
vector 174 ModbusTest1.operatorStation.eth[1].macLayer.fcsChecker flowOutgoingDataRate:vector ETV
attr interpolationmode linear
attr recordingmode vector
attr source "throughput(demuxFlow(merge(packetPushedOut, packetPulledOut)))"
attr title "flow specific outgoing data rate"
attr unit bps
vector 175 ModbusTest1.operatorStation.eth[1].macLayer.fcsChecker flowDroppedPacketLengths:vector ETV
attr interpolationmode none
attr recordingmode vector
attr source packetLength(demuxFlow(packetDropped))
attr title "flow specific dropped packet lengths"
attr unit b
vector 176 ModbusTest1.operatorStation.eth[1].macLayer.fcsChecker flowDroppedDataRate:vector ETV
attr interpolationmode linear
attr recordingmode vector
attr source throughput(demuxFlow(packetDropped))
attr title "flow specific dropped data rate"
attr unit bps
vector 177 ModbusTest1.operatorStation.eth[1].macLayer.inboundEmitter incomingPacketLengths:vector ETV
attr interpolationmode none
attr recordingmode vector
attr source "packetLength(merge(packetPushedIn, packetPulledIn))"
attr title "incoming packet lengths"
attr unit b
vector 178 ModbusTest1.operatorStation.eth[1].macLayer.inboundEmitter incomingDataRate:vector ETV
attr interpolationmode linear
attr recordingmode vector
attr source "throughput(merge(packetPushedIn, packetPulledIn))"
attr title "incoming data rate"
attr unit bps
vector 179 ModbusTest1.operatorStation.eth[1].macLayer.inboundEmitter outgoingPacketLengths:vector ETV
attr interpolationmode none
attr recordingmode vector
attr source "packetLength(merge(packetPushedOut, packetPulledOut))"
attr title "outgoing packet lengths"
attr unit b
vector 180 ModbusTest1.operatorStation.eth[1].macLayer.inboundEmitter outgoingDataRate:vector ETV
attr interpolationmode linear
attr recordingmode vector
attr source "throughput(merge(packetPushedOut, packetPulledOut))"
attr title "outgoing data rate"
attr unit bps
vector 181 ModbusTest1.operatorStation.eth[1].macLayer.inboundEmitter flowIncomingPacketLengths:vector ETV
attr interpolationmode none
attr recordingmode vector
attr source "packetLength(demuxFlow(merge(packetPushedIn, packetPulledIn)))"
attr title "flow specific incoming packet lengths"
attr unit b
vector 182 ModbusTest1.operatorStation.eth[1].macLayer.inboundEmitter flowIncomingDataRate:vector ETV
attr interpolationmode linear
attr recordingmode vector
attr source "throughput(demuxFlow(merge(packetPushedIn, packetPulledIn)))"
attr title "flow specific incoming data rate"
attr unit bps
vector 183 ModbusTest1.operatorStation.eth[1].macLayer.inboundEmitter flowOutgoingPacketLengths:vector ETV
attr interpolationmode none
attr recordingmode vector
attr source "packetLength(demuxFlow(merge(packetPushedOut, packetPulledOut)))"
attr title "flow specific outgoing packet lengths"
attr unit b
vector 184 ModbusTest1.operatorStation.eth[1].macLayer.inboundEmitter flowOutgoingDataRate:vector ETV
attr interpolationmode linear
attr recordingmode vector
attr source "throughput(demuxFlow(merge(packetPushedOut, packetPulledOut)))"
attr title "flow specific outgoing data rate"
attr unit bps
vector 185 ModbusTest1.operatorStation.eth[1].phyLayer.phyHeaderInserter incomingPacketLengths:vector ETV
attr interpolationmode none
attr recordingmode vector
attr source "packetLength(merge(packetPushedIn, packetPulledIn))"
attr title "incoming packet lengths"
attr unit b
vector 186 ModbusTest1.operatorStation.eth[1].phyLayer.phyHeaderInserter incomingDataRate:vector ETV
attr interpolationmode linear
attr recordingmode vector
attr source "throughput(merge(packetPushedIn, packetPulledIn))"
attr title "incoming data rate"
attr unit bps
vector 187 ModbusTest1.operatorStation.eth[1].phyLayer.phyHeaderInserter outgoingPacketLengths:vector ETV
attr interpolationmode none
attr recordingmode vector
attr source "packetLength(merge(packetPushedOut, packetPulledOut))"
attr title "outgoing packet lengths"
attr unit b
vector 188 ModbusTest1.operatorStation.eth[1].phyLayer.phyHeaderInserter outgoingDataRate:vector ETV
attr interpolationmode linear
attr recordingmode vector
attr source "throughput(merge(packetPushedOut, packetPulledOut))"
attr title "outgoing data rate"
attr unit bps
vector 189 ModbusTest1.operatorStation.eth[1].phyLayer.phyHeaderInserter flowIncomingPacketLengths:vector ETV
attr interpolationmode none
attr recordingmode vector
attr source "packetLength(demuxFlow(merge(packetPushedIn, packetPulledIn)))"
attr title "flow specific incoming packet lengths"
attr unit b
vector 190 ModbusTest1.operatorStation.eth[1].phyLayer.phyHeaderInserter flowIncomingDataRate:vector ETV
attr interpolationmode linear
attr recordingmode vector
attr source "throughput(demuxFlow(merge(packetPushedIn, packetPulledIn)))"
attr title "flow specific incoming data rate"
attr unit bps
vector 191 ModbusTest1.operatorStation.eth[1].phyLayer.phyHeaderInserter flowOutgoingPacketLengths:vector ETV
attr interpolationmode none
attr recordingmode vector
attr source "packetLength(demuxFlow(merge(packetPushedOut, packetPulledOut)))"
attr title "flow specific outgoing packet lengths"
attr unit b
vector 192 ModbusTest1.operatorStation.eth[1].phyLayer.phyHeaderInserter flowOutgoingDataRate:vector ETV
attr interpolationmode linear
attr recordingmode vector
attr source "throughput(demuxFlow(merge(packetPushedOut, packetPulledOut)))"
attr title "flow specific outgoing data rate"
attr unit bps
vector 193 ModbusTest1.operatorStation.eth[1].phyLayer.interFrameGapInserter interpacketGap:vector ETV
attr interpolationmode sample-hold
attr recordingmode vector
attr source "count(interpacketGapStarted) - count(interpacketGapEnded)"
attr title "interpacket gap state"
attr type int
vector 194 ModbusTest1.operatorStation.eth[1].phyLayer.outboundEmitter incomingPacketLengths:vector ETV
attr interpolationmode none
attr recordingmode vector
attr source "packetLength(merge(packetPushedIn, packetPulledIn))"
attr title "incoming packet lengths"
attr unit b
vector 195 ModbusTest1.operatorStation.eth[1].phyLayer.outboundEmitter incomingDataRate:vector ETV
attr interpolationmode linear
attr recordingmode vector
attr source "throughput(merge(packetPushedIn, packetPulledIn))"
attr title "incoming data rate"
attr unit bps
vector 196 ModbusTest1.operatorStation.eth[1].phyLayer.outboundEmitter outgoingPacketLengths:vector ETV
attr interpolationmode none
attr recordingmode vector
attr source "packetLength(merge(packetPushedOut, packetPulledOut))"
attr title "outgoing packet lengths"
attr unit b
vector 197 ModbusTest1.operatorStation.eth[1].phyLayer.outboundEmitter outgoingDataRate:vector ETV
attr interpolationmode linear
attr recordingmode vector
attr source "throughput(merge(packetPushedOut, packetPulledOut))"
attr title "outgoing data rate"
attr unit bps
vector 198 ModbusTest1.operatorStation.eth[1].phyLayer.outboundEmitter flowIncomingPacketLengths:vector ETV
attr interpolationmode none
attr recordingmode vector
attr source "packetLength(demuxFlow(merge(packetPushedIn, packetPulledIn)))"
attr title "flow specific incoming packet lengths"
attr unit b
vector 199 ModbusTest1.operatorStation.eth[1].phyLayer.outboundEmitter flowIncomingDataRate:vector ETV
attr interpolationmode linear
attr recordingmode vector
attr source "throughput(demuxFlow(merge(packetPushedIn, packetPulledIn)))"
attr title "flow specific incoming data rate"
attr unit bps
vector 200 ModbusTest1.operatorStation.eth[1].phyLayer.outboundEmitter flowOutgoingPacketLengths:vector ETV
attr interpolationmode none
attr recordingmode vector
attr source "packetLength(demuxFlow(merge(packetPushedOut, packetPulledOut)))"
attr title "flow specific outgoing packet lengths"
attr unit b
vector 201 ModbusTest1.operatorStation.eth[1].phyLayer.outboundEmitter flowOutgoingDataRate:vector ETV
attr interpolationmode linear
attr recordingmode vector
attr source "throughput(demuxFlow(merge(packetPushedOut, packetPulledOut)))"
attr title "flow specific outgoing data rate"
attr unit bps
vector 202 ModbusTest1.operatorStation.eth[1].phyLayer.transmitter transmitting:vector ETV
attr interpolationmode sample-hold
attr recordingmode vector
attr source "count(transmissionStarted) - count(transmissionEnded)"
attr title "transmitting state"
attr type int
vector 203 ModbusTest1.operatorStation.eth[1].phyLayer.transmitter throughput:vector ETV
attr interpolationmode linear
attr recordingmode vector
attr source throughput(transmissionEnded)
attr title throughput
attr unit bps
vector 204 ModbusTest1.operatorStation.eth[1].phyLayer.transmitter utilization:vector ETV
attr interpolationmode linear
attr recordingmode vector
attr source "100 * utilization(count(transmissionStarted) - count(transmissionEnded))"
attr title utilization
attr unit %
vector 205 ModbusTest1.operatorStation.eth[1].phyLayer.transmitter transmissionTime:vector ETV
attr interpolationmode none
attr recordingmode vector
attr source packetDuration(transmissionEnded)
attr title "transmission time"
attr unit s
vector 206 ModbusTest1.operatorStation.eth[1].phyLayer.transmitter flowTransmissionTime:vector ETV
attr interpolationmode none
attr recordingmode vector
attr source packetDuration(demuxFlow(transmissionEnded))
attr title "flow transmission time"
attr unit s
vector 207 ModbusTest1.operatorStation.eth[1].phyLayer.phyHeaderChecker incomingPacketLengths:vector ETV
attr interpolationmode none
attr recordingmode vector
attr source "packetLength(merge(packetPushedIn, packetPulledIn))"
attr title "incoming packet lengths"
attr unit b
vector 208 ModbusTest1.operatorStation.eth[1].phyLayer.phyHeaderChecker incomingDataRate:vector ETV
attr interpolationmode linear
attr recordingmode vector
attr source "throughput(merge(packetPushedIn, packetPulledIn))"
attr title "incoming data rate"
attr unit bps
vector 209 ModbusTest1.operatorStation.eth[1].phyLayer.phyHeaderChecker outgoingPacketLengths:vector ETV
attr interpolationmode none
attr recordingmode vector
attr source "packetLength(merge(packetPushedOut, packetPulledOut))"
attr title "outgoing packet lengths"
attr unit b
vector 210 ModbusTest1.operatorStation.eth[1].phyLayer.phyHeaderChecker outgoingDataRate:vector ETV
attr interpolationmode linear
attr recordingmode vector
attr source "throughput(merge(packetPushedOut, packetPulledOut))"
attr title "outgoing data rate"
attr unit bps
vector 211 ModbusTest1.operatorStation.eth[1].phyLayer.phyHeaderChecker droppedPacketLengths:vector ETV
attr interpolationmode none
attr recordingmode vector
attr source packetLength(packetDropped)
attr title "dropped packet lengths"
attr unit b
vector 212 ModbusTest1.operatorStation.eth[1].phyLayer.phyHeaderChecker droppedDataRate:vector ETV
attr interpolationmode linear
attr recordingmode vector
attr source throughput(packetDropped)
attr title "dropped data rate"
attr unit bps
vector 213 ModbusTest1.operatorStation.eth[1].phyLayer.phyHeaderChecker flowIncomingPacketLengths:vector ETV
attr interpolationmode none
attr recordingmode vector
attr source "packetLength(demuxFlow(merge(packetPushedIn, packetPulledIn)))"
attr title "flow specific incoming packet lengths"
attr unit b
vector 214 ModbusTest1.operatorStation.eth[1].phyLayer.phyHeaderChecker flowIncomingDataRate:vector ETV
attr interpolationmode linear
attr recordingmode vector
attr source "throughput(demuxFlow(merge(packetPushedIn, packetPulledIn)))"
attr title "flow specific incoming data rate"
attr unit bps
vector 215 ModbusTest1.operatorStation.eth[1].phyLayer.phyHeaderChecker flowOutgoingPacketLengths:vector ETV
attr interpolationmode none
attr recordingmode vector
attr source "packetLength(demuxFlow(merge(packetPushedOut, packetPulledOut)))"
attr title "flow specific outgoing packet lengths"
attr unit b
vector 216 ModbusTest1.operatorStation.eth[1].phyLayer.phyHeaderChecker flowOutgoingDataRate:vector ETV
attr interpolationmode linear
attr recordingmode vector
attr source "throughput(demuxFlow(merge(packetPushedOut, packetPulledOut)))"
attr title "flow specific outgoing data rate"
attr unit bps
vector 217 ModbusTest1.operatorStation.eth[1].phyLayer.phyHeaderChecker flowDroppedPacketLengths:vector ETV
attr interpolationmode none
attr recordingmode vector
attr source packetLength(demuxFlow(packetDropped))
attr title "flow specific dropped packet lengths"
attr unit b
vector 218 ModbusTest1.operatorStation.eth[1].phyLayer.phyHeaderChecker flowDroppedDataRate:vector ETV
attr interpolationmode linear
attr recordingmode vector
attr source throughput(demuxFlow(packetDropped))
attr title "flow specific dropped data rate"
attr unit bps
vector 219 ModbusTest1.operatorStation.eth[1].phyLayer.inboundEmitter incomingPacketLengths:vector ETV
attr interpolationmode none
attr recordingmode vector
attr source "packetLength(merge(packetPushedIn, packetPulledIn))"
attr title "incoming packet lengths"
attr unit b
vector 220 ModbusTest1.operatorStation.eth[1].phyLayer.inboundEmitter incomingDataRate:vector ETV
attr interpolationmode linear
attr recordingmode vector
attr source "throughput(merge(packetPushedIn, packetPulledIn))"
attr title "incoming data rate"
attr unit bps
vector 221 ModbusTest1.operatorStation.eth[1].phyLayer.inboundEmitter outgoingPacketLengths:vector ETV
attr interpolationmode none
attr recordingmode vector
attr source "packetLength(merge(packetPushedOut, packetPulledOut))"
attr title "outgoing packet lengths"
attr unit b
vector 222 ModbusTest1.operatorStation.eth[1].phyLayer.inboundEmitter outgoingDataRate:vector ETV
attr interpolationmode linear
attr recordingmode vector
attr source "throughput(merge(packetPushedOut, packetPulledOut))"
attr title "outgoing data rate"
attr unit bps
vector 223 ModbusTest1.operatorStation.eth[1].phyLayer.inboundEmitter flowIncomingPacketLengths:vector ETV
attr interpolationmode none
attr recordingmode vector
attr source "packetLength(demuxFlow(merge(packetPushedIn, packetPulledIn)))"
attr title "flow specific incoming packet lengths"
attr unit b
vector 224 ModbusTest1.operatorStation.eth[1].phyLayer.inboundEmitter flowIncomingDataRate:vector ETV
attr interpolationmode linear
attr recordingmode vector
attr source "throughput(demuxFlow(merge(packetPushedIn, packetPulledIn)))"
attr title "flow specific incoming data rate"
attr unit bps
vector 225 ModbusTest1.operatorStation.eth[1].phyLayer.inboundEmitter flowOutgoingPacketLengths:vector ETV
attr interpolationmode none
attr recordingmode vector
attr source "packetLength(demuxFlow(merge(packetPushedOut, packetPulledOut)))"
attr title "flow specific outgoing packet lengths"
attr unit b
vector 226 ModbusTest1.operatorStation.eth[1].phyLayer.inboundEmitter flowOutgoingDataRate:vector ETV
attr interpolationmode linear
attr recordingmode vector
attr source "throughput(demuxFlow(merge(packetPushedOut, packetPulledOut)))"
attr title "flow specific outgoing data rate"
attr unit bps
vector 227 ModbusTest1.operatorStation.eth[1].phyLayer.receiver throughput:vector ETV
attr interpolationmode linear
attr recordingmode vector
attr source throughput(receptionEnded)
attr title throughput
attr unit bps
vector 228 ModbusTest1.operatorStation.eth[1].phyLayer.receiver receptionTime:vector ETV
attr interpolationmode none
attr recordingmode vector
attr source packetDuration(receptionEnded)
attr title "reception time"
attr unit s
vector 229 ModbusTest1.operatorStation.eth[1].phyLayer.receiver flowReceptionTime:vector ETV
attr interpolationmode none
attr recordingmode vector
attr source packetDuration(demuxFlow(receptionEnded))
attr title "flow reception time"
attr unit s
vector 230 ModbusTest1.operatorStation.eth[1] packetDropInterfaceDown:vector(packetBytes) ETV
attr interpolationmode none
attr recordingmode vector(packetBytes)
attr source packetDropReasonIsInterfaceDown(packetDropped)
attr title "packet drops: interface down, packetBytes"
vector 231 ModbusTest1.operatorStation.eth[1] packetDropNoCarrier:vector(packetBytes) ETV
attr interpolationmode none
attr recordingmode vector(packetBytes)
attr source packetDropReasonIsNoCarrier(packetDropped)
attr title "packet drops: no carrier, packetBytes"
vector 232 ModbusTest1.operatorStation.ipv4.ip packetDropAddressResolutionFailed:vector(packetBytes) ETV
attr interpolationmode none
attr recordingmode vector(packetBytes)
attr source packetDropReasonIsAddressResolutionFailed(packetDropped)
attr title "packet drop: address resolution failed, packetBytes"
vector 233 ModbusTest1.operatorStation.ipv4.ip packetDropHopLimitReached:vector(packetBytes) ETV
attr interpolationmode none
attr recordingmode vector(packetBytes)
attr source packetDropReasonIsHopLimitReached(packetDropped)
attr title "packet drop: hop limit reached, packetBytes"
vector 234 ModbusTest1.operatorStation.ipv4.ip packetDropForwardingDisabled:vector(packetBytes) ETV
attr interpolationmode none
attr recordingmode vector(packetBytes)
attr source packetDropReasonIsForwardingDisabled(packetDropped)
attr title "packet drop: forwarding disabled, packetBytes"
vector 235 ModbusTest1.operatorStation.ipv4.ip packetDropNoInterfaceFound:vector(packetBytes) ETV
attr interpolationmode none
attr recordingmode vector(packetBytes)
attr source packetDropReasonIsNoInterfaceFound(packetDropped)
attr title "packet drop: no interface found, packetBytes"
vector 236 ModbusTest1.operatorStation.ipv4.ip packetDropNoRouteFound:vector(packetBytes) ETV
attr interpolationmode none
attr recordingmode vector(packetBytes)
attr source packetDropReasonIsNoRouteFound(packetDropped)
attr title "packet drop: no route found, packetBytes"
vector 237 ModbusTest1.operatorStation.ipv4.ip packetDropUndefined:vector(packetBytes) ETV
attr interpolationmode none
attr recordingmode vector(packetBytes)
attr source packetDropReasonIsUndefined(packetDropped)
attr title "packet drop: undefined, packetBytes"
vector 238 ModbusTest1.operatorStation.udp packetSent:vector(packetBytes) ETV
attr interpolationmode none
attr recordingmode vector(packetBytes)
attr source packetSent
attr title "packets sent, packetBytes"
vector 239 ModbusTest1.operatorStation.udp packetReceived:vector(packetBytes) ETV
attr interpolationmode none
attr recordingmode vector(packetBytes)
attr source packetReceived
attr title "packets received, packetBytes"
vector 240 ModbusTest1.operatorStation.udp passedUpPk:vector(count) ETV
attr interpolationmode none
attr recordingmode vector(count)
attr source packetSentToUpper
attr title "packets passed up, count"
vector 241 ModbusTest1.operatorStation.udp droppedPkWrongPort:vector(count) ETV
attr interpolationmode none
attr recordingmode vector(count)
attr source packetDropReasonIsNoPortFound(packetDropped)
attr title "packets dropped (wrong port), count"
vector 242 ModbusTest1.operatorStation.udp droppedPkBadChecksum:vector(count) ETV
attr interpolationmode none
attr recordingmode vector(count)
attr source packetDropReasonIsIncorrectlyReceived(packetDropped)
attr title "packets dropped (checksum error), count"
vector 243 ModbusTest1.operatorStation.app[0] packetReceived:vector(packetBytes) ETV
attr interpolationmode none
attr recordingmode vector(packetBytes)
attr source packetReceived
attr title "packets received, packetBytes"
vector 244 ModbusTest1.operatorStation.app[0] packetSent:vector(packetBytes) ETV
attr interpolationmode none
attr recordingmode vector(packetBytes)
attr source packetSent
attr title "packets sent, packetBytes"
vector 245 ModbusTest1.operatorStation.app[0] endToEndDelay:vector ETV
attr interpolationmode none
attr recordingmode vector
attr source dataAge(packetReceived)
attr title "end-to-end delay"
attr unit s
vector 246 ModbusTest1.operatorStation.app[0] numActiveSessions:vector ETV
attr autoWarmupFilter false
attr interpolationmode sample-hold
attr recordingmode vector
attr source warmup(sum(connect))
attr title "number of active sessions"
vector 247 ModbusTest1.operatorStation.app[1] packetReceived:vector(packetBytes) ETV
attr interpolationmode none
attr recordingmode vector(packetBytes)
attr source packetReceived
attr title "packets received, packetBytes"
vector 248 ModbusTest1.operatorStation.app[1] packetSent:vector(packetBytes) ETV
attr interpolationmode none
attr recordingmode vector(packetBytes)
attr source packetSent
attr title "packets sent, packetBytes"
vector 249 ModbusTest1.operatorStation.app[1] endToEndDelay:vector ETV
attr interpolationmode none
attr recordingmode vector
attr source dataAge(packetReceived)
attr title "end-to-end delay"
attr unit s
vector 250 ModbusTest1.operatorStation.app[1] numActiveSessions:vector ETV
attr autoWarmupFilter false
attr interpolationmode sample-hold
attr recordingmode vector
attr source warmup(sum(connect))
attr title "number of active sessions"
vector 251 ModbusTest1.switch1.bridging.directionReverser.reverser incomingPacketLengths:vector ETV
attr interpolationmode none
attr recordingmode vector
attr source "packetLength(merge(packetPushedIn, packetPulledIn))"
attr title "incoming packet lengths"
attr unit b
vector 252 ModbusTest1.switch1.bridging.directionReverser.reverser incomingDataRate:vector ETV
attr interpolationmode linear
attr recordingmode vector
attr source "throughput(merge(packetPushedIn, packetPulledIn))"
attr title "incoming data rate"
attr unit bps
vector 253 ModbusTest1.switch1.bridging.directionReverser.reverser outgoingPacketLengths:vector ETV
attr interpolationmode none
attr recordingmode vector
attr source "packetLength(merge(packetPushedOut, packetPulledOut))"
attr title "outgoing packet lengths"
attr unit b
vector 254 ModbusTest1.switch1.bridging.directionReverser.reverser outgoingDataRate:vector ETV
attr interpolationmode linear
attr recordingmode vector
attr source "throughput(merge(packetPushedOut, packetPulledOut))"
attr title "outgoing data rate"
attr unit bps
vector 255 ModbusTest1.switch1.bridging.directionReverser.reverser flowIncomingPacketLengths:vector ETV
attr interpolationmode none
attr recordingmode vector
attr source "packetLength(demuxFlow(merge(packetPushedIn, packetPulledIn)))"
attr title "flow specific incoming packet lengths"
attr unit b
vector 256 ModbusTest1.switch1.bridging.directionReverser.reverser flowIncomingDataRate:vector ETV
attr interpolationmode linear
attr recordingmode vector
attr source "throughput(demuxFlow(merge(packetPushedIn, packetPulledIn)))"
attr title "flow specific incoming data rate"
attr unit bps
vector 257 ModbusTest1.switch1.bridging.directionReverser.reverser flowOutgoingPacketLengths:vector ETV
attr interpolationmode none
attr recordingmode vector
attr source "packetLength(demuxFlow(merge(packetPushedOut, packetPulledOut)))"
attr title "flow specific outgoing packet lengths"
attr unit b
vector 258 ModbusTest1.switch1.bridging.directionReverser.reverser flowOutgoingDataRate:vector ETV
attr interpolationmode linear
attr recordingmode vector
attr source "throughput(demuxFlow(merge(packetPushedOut, packetPulledOut)))"
attr title "flow specific outgoing data rate"
attr unit bps
vector 259 ModbusTest1.switch1.bridging.directionReverser.join packetLengths:vector ETV
attr interpolationmode none
attr recordingmode vector
attr source "packetLength(merge(packetPushed, packetPulled))"
attr title "packet lengths"
attr unit b
vector 260 ModbusTest1.switch1.bridging.directionReverser.join dataRate:vector ETV
attr interpolationmode linear
attr recordingmode vector
attr source "throughput(merge(packetPushed, packetPulled))"
attr title "data rate"
attr unit bps
vector 261 ModbusTest1.switch1.bridging.interfaceRelay.learner incomingPacketLengths:vector ETV
attr interpolationmode none
attr recordingmode vector
attr source "packetLength(merge(packetPushedIn, packetPulledIn))"
attr title "incoming packet lengths"
attr unit b
vector 262 ModbusTest1.switch1.bridging.interfaceRelay.learner incomingDataRate:vector ETV
attr interpolationmode linear
attr recordingmode vector
attr source "throughput(merge(packetPushedIn, packetPulledIn))"
attr title "incoming data rate"
attr unit bps
vector 263 ModbusTest1.switch1.bridging.interfaceRelay.learner outgoingPacketLengths:vector ETV
attr interpolationmode none
attr recordingmode vector
attr source "packetLength(merge(packetPushedOut, packetPulledOut))"
attr title "outgoing packet lengths"
attr unit b
vector 264 ModbusTest1.switch1.bridging.interfaceRelay.learner outgoingDataRate:vector ETV
attr interpolationmode linear
attr recordingmode vector
attr source "throughput(merge(packetPushedOut, packetPulledOut))"
attr title "outgoing data rate"
attr unit bps
vector 265 ModbusTest1.switch1.bridging.interfaceRelay.learner flowIncomingPacketLengths:vector ETV
attr interpolationmode none
attr recordingmode vector
attr source "packetLength(demuxFlow(merge(packetPushedIn, packetPulledIn)))"
attr title "flow specific incoming packet lengths"
attr unit b
vector 266 ModbusTest1.switch1.bridging.interfaceRelay.learner flowIncomingDataRate:vector ETV
attr interpolationmode linear
attr recordingmode vector
attr source "throughput(demuxFlow(merge(packetPushedIn, packetPulledIn)))"
attr title "flow specific incoming data rate"
attr unit bps
vector 267 ModbusTest1.switch1.bridging.interfaceRelay.learner flowOutgoingPacketLengths:vector ETV
attr interpolationmode none
attr recordingmode vector
attr source "packetLength(demuxFlow(merge(packetPushedOut, packetPulledOut)))"
attr title "flow specific outgoing packet lengths"
attr unit b
vector 268 ModbusTest1.switch1.bridging.interfaceRelay.learner flowOutgoingDataRate:vector ETV
attr interpolationmode linear
attr recordingmode vector
attr source "throughput(demuxFlow(merge(packetPushedOut, packetPulledOut)))"
attr title "flow specific outgoing data rate"
attr unit bps
vector 269 ModbusTest1.switch1.bridging.interfaceRelay.selector packetDropped:vector(packetBytes) ETV
attr interpolationmode none
attr recordingmode vector(packetBytes)
attr title "packets dropped, packetBytes"
vector 270 ModbusTest1.switch1.ethernet.macHeaderInserter incomingPacketLengths:vector ETV
attr interpolationmode none
attr recordingmode vector
attr source "packetLength(merge(packetPushedIn, packetPulledIn))"
attr title "incoming packet lengths"
attr unit b
vector 271 ModbusTest1.switch1.ethernet.macHeaderInserter incomingDataRate:vector ETV
attr interpolationmode linear
attr recordingmode vector
attr source "throughput(merge(packetPushedIn, packetPulledIn))"
attr title "incoming data rate"
attr unit bps
vector 272 ModbusTest1.switch1.ethernet.macHeaderInserter outgoingPacketLengths:vector ETV
attr interpolationmode none
attr recordingmode vector
attr source "packetLength(merge(packetPushedOut, packetPulledOut))"
attr title "outgoing packet lengths"
attr unit b
vector 273 ModbusTest1.switch1.ethernet.macHeaderInserter outgoingDataRate:vector ETV
attr interpolationmode linear
attr recordingmode vector
attr source "throughput(merge(packetPushedOut, packetPulledOut))"
attr title "outgoing data rate"
attr unit bps
vector 274 ModbusTest1.switch1.ethernet.macHeaderInserter flowIncomingPacketLengths:vector ETV
attr interpolationmode none
attr recordingmode vector
attr source "packetLength(demuxFlow(merge(packetPushedIn, packetPulledIn)))"
attr title "flow specific incoming packet lengths"
attr unit b
vector 275 ModbusTest1.switch1.ethernet.macHeaderInserter flowIncomingDataRate:vector ETV
attr interpolationmode linear
attr recordingmode vector
attr source "throughput(demuxFlow(merge(packetPushedIn, packetPulledIn)))"
attr title "flow specific incoming data rate"
attr unit bps
vector 276 ModbusTest1.switch1.ethernet.macHeaderInserter flowOutgoingPacketLengths:vector ETV
attr interpolationmode none
attr recordingmode vector
attr source "packetLength(demuxFlow(merge(packetPushedOut, packetPulledOut)))"
attr title "flow specific outgoing packet lengths"
attr unit b
vector 277 ModbusTest1.switch1.ethernet.macHeaderInserter flowOutgoingDataRate:vector ETV
attr interpolationmode linear
attr recordingmode vector
attr source "throughput(demuxFlow(merge(packetPushedOut, packetPulledOut)))"
attr title "flow specific outgoing data rate"
attr unit bps
vector 278 ModbusTest1.switch1.ethernet.paddingInserter incomingPacketLengths:vector ETV
attr interpolationmode none
attr recordingmode vector
attr source "packetLength(merge(packetPushedIn, packetPulledIn))"
attr title "incoming packet lengths"
attr unit b
vector 279 ModbusTest1.switch1.ethernet.paddingInserter incomingDataRate:vector ETV
attr interpolationmode linear
attr recordingmode vector
attr source "throughput(merge(packetPushedIn, packetPulledIn))"
attr title "incoming data rate"
attr unit bps
vector 280 ModbusTest1.switch1.ethernet.paddingInserter outgoingPacketLengths:vector ETV
attr interpolationmode none
attr recordingmode vector
attr source "packetLength(merge(packetPushedOut, packetPulledOut))"
attr title "outgoing packet lengths"
attr unit b
vector 281 ModbusTest1.switch1.ethernet.paddingInserter outgoingDataRate:vector ETV
attr interpolationmode linear
attr recordingmode vector
attr source "throughput(merge(packetPushedOut, packetPulledOut))"
attr title "outgoing data rate"
attr unit bps
vector 282 ModbusTest1.switch1.ethernet.paddingInserter flowIncomingPacketLengths:vector ETV
attr interpolationmode none
attr recordingmode vector
attr source "packetLength(demuxFlow(merge(packetPushedIn, packetPulledIn)))"
attr title "flow specific incoming packet lengths"
attr unit b
vector 283 ModbusTest1.switch1.ethernet.paddingInserter flowIncomingDataRate:vector ETV
attr interpolationmode linear
attr recordingmode vector
attr source "throughput(demuxFlow(merge(packetPushedIn, packetPulledIn)))"
attr title "flow specific incoming data rate"
attr unit bps
vector 284 ModbusTest1.switch1.ethernet.paddingInserter flowOutgoingPacketLengths:vector ETV
attr interpolationmode none
attr recordingmode vector
attr source "packetLength(demuxFlow(merge(packetPushedOut, packetPulledOut)))"
attr title "flow specific outgoing packet lengths"
attr unit b
vector 285 ModbusTest1.switch1.ethernet.paddingInserter flowOutgoingDataRate:vector ETV
attr interpolationmode linear
attr recordingmode vector
attr source "throughput(demuxFlow(merge(packetPushedOut, packetPulledOut)))"
attr title "flow specific outgoing data rate"
attr unit bps
[...]
1688	2859546 3224 240 11171 0.1 19 190 0 461440 1192720 246625350400
1693	2862770 4919 50 11332 0.00001386 19.50001349 195 560 808 118728 72773696
1694	2867689 3356 213 11332 0.1 19.5 195 0 444880 1181680 226174035200
1695	2871045 4919 50 11332 0.00001386 19.50001349 195 560 808 118728 72773696
1696	2875964 3356 213 11332 0.1 19.5 195 0 444880 1181680 226174035200
1698	2879320 3486 11511 11511 0.1 20.00000624 201 0 0 0 0
1705	2882806 4919 50 11332 0.00001386 19.50001349 195 560 808 118728 72773696
1706	2887725 3356 213 11332 0.1 19.5 195 0 444880 1181680 226174035200
1707	2891081 4919 50 11332 0.00001386 19.50001349 195 560 808 118728 72773696
1708	2896000 3356 213 11332 0.1 19.5 195 0 444880 1181680 226174035200
1713	2899356 4902 60 11291 0.00001386 19.00012405 195 560 792 121712 77127424
1714	2904258 3224 240 11171 0.1 19 190 0 461440 1192720 246625350400
1715	2907482 4902 60 11291 0.00001386 19.00012405 195 624 856 134192 93505280
1716	2912384 3224 240 11171 0.1 19 190 0 508800 1314960 299822560000
1721	2915608 9081 0 11300 0 19.00013245 392 0 1 195 195
1722	2924689 4902 60 11291 0.00001386 19.00012405 195 624 856 134192 93505280
1723	2929591 3224 240 11171 0.1 19 190 0 508800 1314960 299822560000
1724	2932815 4902 60 11291 0.00001386 19.00012405 195 624 856 134192 93505280
1725	2937717 3224 240 11171 0.1 19 190 0 508800 1314960 299822560000
1730	2940941 9064 0 11298 0 19.00013149 392 0 1 195 195
1731	2950005 3431 248 11511 0.1 20.00000624 201 0 508800 1341920 300549401600
1732	2953436 3272 240 11171 0.1 19 190 0 0.5088 1.31496 0.29982256
1733	2956708 5894 71 11298 0.00002074 19.00013149 195 6.24e-06 8.56e-06 0.00134192 9.350528e-09
1735	2962602 4919 50 11332 0.00001386 19.50001349 195 624 872 131208 88769600
1736	2967521 3356 213 11332 0.1 19.5 195 0 491600 1305840 276181587200
1737	2970877 4919 50 11332 0.00001386 19.50001349 195 560 808 118728 72773696
1738	2975796 3356 213 11332 0.1 19.5 195 0 444880 1181680 226174035200
1740	2979152 3486 11511 11511 0.1 20.00000624 201 0 0 0 0
1747	2982638 4919 50 11332 0.00001386 19.50001349 195 624 872 131208 88769600
1748	2987557 3356 213 11332 0.1 19.5 195 0 491600 1305840 276181587200
1749	2990913 4919 50 11332 0.00001386 19.50001349 195 624 872 131208 88769600
1750	2995832 3356 213 11332 0.1 19.5 195 0 491600 1305840 276181587200
1755	2999188 3472 213 11511 0.1 20.00000624 201 0 491600 1312080 276220524800
1756	3002660 5798 50 11332 0.00001386 19.50001349 195 6.24e-06 8.72e-06 0.00131208 8.87696e-09
1760	3008458 55 0 0 0 0 5 0 0 0 0
1761	3008513 55 0 0 0 0 5 0 0 0 0
1764	3008568 3486 11511 11511 0.1 20.00000624 201 0 0 0 0
1766	3012054 3486 11511 11511 0.1 20.00000624 201 0 0 0 0
1772	3015540 3486 11511 11511 0.1 20.00000624 201 0 0 0 0
1774	3019026 3486 11511 11511 0.1 20.00000624 201 0 0 0 0
1788	3022512 3486 11511 11511 0.1 20.00000624 201 0 0 0 0
1811	3025998 22 0 0 0 0 2 0 0 0 0
1820	3026020 22 0 0 0 0 2 0 0 0 0
1821	3026042 3486 11511 11511 0.1 20.00000624 201 0 0 0 0
1830	3029528 3486 11511 11511 0.1 20.00000624 201 0 0 0 0
1845	3033014 3486 11511 11511 0.1 20.00000624 201 0 0 0 0
1858	3036500 11 0 0 0 0 1 0 0 0 0
1859	3036511 11 0 0 0 0 1 0 0 0 0
1860	3036522 11 0 0 0 0 1 0 0 0 0
1861	3036533 2335 156 11273 0.00004458 19.00011685 97 12 31 1183 14785
1862	3038868 2335 156 11273 0.00004458 19.00011685 97 10 29 1548 30528
1864	3041203 2452 84 11465 0.00002261 19.50012218 97 416 496 44256 20345856
1865	3043655 3269 468 11353 0.1 19.5 195 0 164160 424320 33625497600
1866	3046924 2452 84 11465 0.00002261 19.50012218 97 528 608 55120 31475968
1867	3049376 3269 468 11353 0.1 19.5 195 0 204480 528480 52171084800
1872	3052645 2452 84 11465 0.00002261 19.50012218 97 528 608 55120 31475968
1873	3055097 3269 468 11353 0.1 19.5 195 0 204480 528480 52171084800
1874	3058366 2452 84 11465 0.00002261 19.50012218 97 528 608 55120 31475968
1875	3060818 3269 468 11353 0.1 19.5 195 0 204480 528480 52171084800
1880	3064087 2452 84 11465 0.00002261 19.50012218 97 528 608 55120 31475968
1881	3066539 3269 468 11353 0.1 19.5 195 0 204480 528480 52171084800
1882	3069808 2452 84 11465 0.00002261 19.50012218 97 560 640 58224 35102976
1883	3072260 3269 468 11353 0.1 19.5 195 0 216000 558240 58214937600
1888	3075529 2451 75 11452 0.0000217 19.50011594 97 528 624 55888 32422144
1889	3077980 3301 458 11343 0.1 19.5 195 0 202080 541120 49056870400
1890	3081281 2451 75 11452 0.0000217 19.50011594 97 416 512 45024 21120000
1891	3083732 3300 458 11343 0.1 19.5 195 0 162880 435840 31890227200
1893	3087032 3486 11511 11511 0.1 20.00000624 201 0 0 0 0
1900	3090518 2451 75 11452 0.0000217 19.50011594 97 560 656 58992 36098304
1901	3092969 3301 458 11343 0.1 19.5 195 0 213280 571200 54638080000
1902	3096270 2451 75 11452 0.0000217 19.50011594 97 528 624 55888 32422144
1903	3098721 3301 458 11343 0.1 19.5 195 0 202080 541120 49056870400
1905	3102022 3486 11511 11511 0.1 20.00000624 201 0 0 0 0
1916	3105508 4574 0 11476 0 19.50012405 199 0 2 99 101
1917	3110082 4771 0 11476 0 19.50012405 199 0 1200 59424 36542976
1918	3114853 2579 87 11476 0.00002261 19.50012405 97 0 8.86e-06 0.00028333 1.9144465e-09
1919	3117432 2452 84 11465 0.00002261 19.50012218 97 560 640 58224 35102976
1920	3119884 3386 468 11511 0.1 20.00000624 201 0 216000 582240 58790937600
1921	3123270 2455 87 11476 0.00002261 19.50012405 97 560 640 58224 35102976
1922	3125725 3386 470 11511 0.1 20.00000624 201 0 216000 582240 58790937600
1927	3129111 2455 87 11476 0.00002261 19.50012405 97 560 640 58224 35102976
1928	3131566 3386 470 11511 0.1 20.00000624 201 0 216000 582240 58790937600
1929	3134952 2455 87 11476 0.00002261 19.50012405 97 560 640 58224 35102976
1930	3137407 3386 470 11511 0.1 20.00000624 201 0 216000 582240 58790937600
1931	3140793 2455 87 11476 0.00002261 19.50012405 97 560 640 58224 35102976
1932	3143248 3269 470 11356 0.1 19.5 195 0 216000 558240 58214937600
1933	3146517 2455 87 11476 0.00002261 19.50012405 97 560 640 58224 35102976
1934	3148972 3269 470 11356 0.1 19.5 195 0 216000 558240 58214937600
1939	3152241 2451 75 11452 0.0000217 19.50011594 97 560 656 58992 36098304
1940	3154692 3301 458 11343 0.1 19.5 195 0 213280 571200 54638080000
1941	3157993 2451 75 11452 0.0000217 19.50011594 97 560 656 58992 36098304
1942	3160444 3301 458 11343 0.1 19.5 195 0 213280 571200 54638080000
1944	3163745 3486 11511 11511 0.1 20.00000624 201 0 0 0 0
1951	3167231 2451 75 11452 0.0000217 19.50011594 97 560 656 58992 36098304
1952	3169682 3301 458 11343 0.1 19.5 195 0 213280 571200 54638080000
1953	3172983 2451 75 11452 0.0000217 19.50011594 97 560 656 58992 36098304
1954	3175434 3301 458 11343 0.1 19.5 195 0 213280 571200 54638080000
1959	3178735 2455 87 11476 0.00002261 19.50012405 97 560 640 58224 35102976
1960	3181190 3269 470 11356 0.1 19.5 195 0 216000 558240 58214937600
1961	3184459 2455 87 11476 0.00002261 19.50012405 97 624 704 64432 42952960
1962	3186914 3269 470 11356 0.1 19.5 195 0 239040 617760 71296128000
1967	3190183 4519 0 11485 0 19.50013205 196 0 1 97 97
1968	3194702 2455 87 11476 0.00002261 19.50012405 97 624 704 64432 42952960
1969	3197157 3269 470 11356 0.1 19.5 195 0 239040 617760 71296128000
1970	3200426 2455 87 11476 0.00002261 19.50012405 97 624 704 64432 42952960
1971	3202881 3269 470 11356 0.1 19.5 195 0 239040 617760 71296128000
1976	3206150 4518 0 11483 0 19.50013109 196 0 1 97 97
1977	3210668 3386 479 11511 0.1 20.00000624 201 0 239040 644320 72001561600
1978	3214054 3297 470 11356 0.1 19.5 195 0 0.23904 0.61776 0.071296128
1979	3217351 2914 93 11483 0.00002949 19.50013109 97 6.24e-06 7.04e-06 0.00064432 4.295296e-09
1981	3220265 2451 75 11452 0.0000217 19.50011594 97 624 720 65200 44046592
1982	3222716 3301 458 11343 0.1 19.5 195 0 235680 631360 66702438400
1983	3226017 2451 75 11452 0.0000217 19.50011594 97 560 656 58992 36098304
1984	3228468 3301 458 11343 0.1 19.5 195 0 213280 571200 54638080000
1986	3231769 3486 11511 11511 0.1 20.00000624 201 0 0 0 0
1993	3235255 2451 75 11452 0.0000217 19.50011594 97 624 720 65200 44046592
1994	3237706 3301 458 11343 0.1 19.5 195 0 235680 631360 66702438400
1995	3241007 2451 75 11452 0.0000217 19.50011594 97 624 720 65200 44046592
1996	3243458 3301 458 11343 0.1 19.5 195 0 235680 631360 66702438400
2001	3246759 3418 458 11511 0.1 20.00000624 201 0 235680 652000 67128448000
2002	3250177 2888 75 11452 0.0000217 19.50011594 97 6.24e-06 7.2e-06 0.000652 4.4046592e-09
2006	3253065 55 0 0 0 0 5 0 0 0 0
2007	3253120 55 0 0 0 0 5 0 0 0 0
2010	3253175 3486 11511 11511 0.1 20.00000624 201 0 0 0 0
2012	3256661 3486 11511 11511 0.1 20.00000624 201 0 0 0 0
2018	3260147 3486 11511 11511 0.1 20.00000624 201 0 0 0 0
2020	3263633 3486 11511 11511 0.1 20.00000624 201 0 0 0 0
2034	3267119 3486 11511 11511 0.1 20.00000624 201 0 0 0 0
2057	3270605 22 0 0 0 0 2 0 0 0 0
2066	3270627 22 0 0 0 0 2 0 0 0 0
2067	3270649 3486 11511 11511 0.1 20.00000624 201 0 0 0 0
2076	3274135 3486 11511 11511 0.1 20.00000624 201 0 0 0 0
2091	3277621 3486 11511 11511 0.1 20.00000624 201 0 0 0 0
2104	3281107 11 0 0 0 0 1 0 0 0 0
2105	3281118 11 0 0 0 0 1 0 0 0 0
2106	3281129 11 0 0 0 0 1 0 0 0 0
2107	3281140 1168 464 11458 1.00006864 19.50011685 48 12 12 576 6912
2111	3282308 2663 97 11308 0.00002954 19.00014493 98 65523 65535 6422418 420892377354
2112	3284971 4988 20 11507 0 20 196 65535 65535 12844860 841787900100
2113	3289959 5013 20 11507 0 20 197 65535 67087 13062485 866175289329
2115	3294972 4650 20 11507 0 20 196 0 1552 152086 158116688
2116	3299622 4761 97 11314 0.00002954 19.5 195 3 1537 149579 153996841
2117	3304383 4723 97 11314 0.00002954 19.5 195 1 1184 115673 91899801
2118	3309106 4528 97 11507 0.00002954 20 195 0 43 2078 36938
2119	3313634 4298 185 11314 0.00005946 19.5 194 0 0 0 0
2122	3317932 22 185 185 0.00005946 0.00005946 1 1 1 1 1
2125	3317954 22 185 185 0.00005946 0.00005946 1 0 0 0 0
2126	3317976 6252 20 11507 0 20 293 0 0 0 0
2128	3324228 4416 97 11314 0.00002954 19.5 195 0 29 1548 30528
2129	3328644 2667 185 11308 0.00005946 19.00014493 97 5832 145224 7326216 713666744640
2130	3331311 3123 185 11308 0.00005946 19.00014493 97 4294967295 4294967295 416611827615 1.7893341743166e+21
2131	3334434 2262 185 11308 0.00005946 19.00014493 97 0 0.5 1.002 0.500002
2132	3336696 3447 185 11308 0.00005946 19.00014493 97 0 0.064198624755 1.001939830719 0.034242569678083
2133	3340143 3487 185 11308 0.00005946 19.00014493 97 8.6768866e-05 0.65625 7.245441282192 2.3869014525587
2134	3343630 2348 185 11308 0.00005946 19.00014493 97 1 2.625 104.85455424339 122.09503643075
2140	3345978 1337 121 11493 0.00003674 19.50014453 49 65535 65535 3211215 210446975025
2141	3347315 2551 21 11499 0 20 98 65535 65535 6422430 420893950050
2142	3349866 2577 21 11499 0 20 99 65535 66021 6511473 428277590803
2144	3352443 2330 21 11499 0 20 98 0 486 23502 7610932
2145	3354773 2327 121 11499 0.00003674 20 97 5 476 23141 7418201
2146	3357100 2333 121 11499 0.00003674 20 97 1 577 28321 11007457
2147	3359433 2288 380 11493 1.00005157 19.50014453 96 0 24 864 13824
2148	3361721 2135 511 11499 1.00008424 20 96 0 0 0 0
2155	3363856 3175 21 11499 0 20 146 0 0 0 0
2157	3367031 2205 121 11499 0.00003674 20 97 0 10 480 4800
2158	3369236 1283 511 11493 1.00008424 19.50014453 48 5832 33420 593568 10637449344
2159	3370519 1551 511 11493 1.00008424 19.50014453 48 4294967295 4294967295 206158430160 8.8544371512574e+20
2160	3372070 1119 511 11493 1.00008424 19.50014453 48 0 0 0 0
2161	3373189 1119 511 11493 1.00008424 19.50014453 48 0 0 0 0
2162	3374308 1728 511 11493 1.00008424 19.50014453 48 0.001234376966 0.65625 5.241359361279 1.8374950226265
2163	3376036 1203 511 11493 1.00008424 19.50014453 48 1 2.625 53.784212768084 65.92882764159
2174	3377239 27 293 293 1.00002296 1.00002296 1 250000 250000 250000 62500000000
2175	3377266 22 293 293 1.00002296 1.00002296 1 0 0 0 0
2186	3377288 22 293 293 1.00002296 1.00002296 1 0 0 0 0
2203	3377310 21 55 55 0.00001386 0.00001386 1 0 0 0 0
2204	3377331 21 55 55 0.00001386 0.00001386 1 0 0 0 0
2215	3377352 21 55 55 0.00001386 0.00001386 1 0 0 0 0
2232	3377373 21 54 54 0.00001386 0.00001386 1 0 0 0 0
2233	3377394 21 54 54 0.00001386 0.00001386 1 0 0 0 0
2244	3377415 21 54 54 0.00001386 0.00001386 1 0 0 0 0
2261	3377436 21 79 79 0.00002256 0.00002256 1 0 0 0 0
2262	3377457 21 79 79 0.00002256 0.00002256 1 0 0 0 0
2273	3377478 21 79 79 0.00002256 0.00002256 1 0 0 0 0
2285	3377499 52 105 3468 0.00002954 7.0000361 2 65535 65535 131070 8589672450
2286	3377551 105 27 6763 0 7.50118996 5 65535 65535 327675 21474181125
2287	3377656 131 27 6763 0 7.50118996 6 65535 65551 393242 25773211910
2288	3377787 28 2273 3393 4 7 2 1 1 2 2
2289	3377815 86 27 6763 0 7.50118996 5 0 16 28 304
2290	3377901 67 105 6763 0.00002954 7.50118996 3 3 4 11 41
2291	3377968 69 105 6763 0.00002954 7.50118996 3 1 40 81 3201
2292	3378037 37 2273 3468 4 7.0000361 2 0 39 39 1521
2293	3378074 45 3468 6763 7.0000361 7.50118996 2 0 0 0 0
2300	3378119 108 27 6763 0 7.50118996 6 0 0 0 0
2302	3378227 68 105 6763 0.00002954 7.50118996 3 0 12 12 144
2303	3378295 42 3393 3468 7 7.0000361 2 1452 2904 4356 10541520
2304	3378337 42 3393 3468 7 7.0000361 2 2904 2904 5808 16866432
2305	3378379 22 3468 3468 7.0000361 7.0000361 1 0 0 0 0
2306	3378401 22 3468 3468 7.0000361 7.0000361 1 0 0 0 0
2307	3378423 28 3468 3468 7.0000361 7.0000361 1 0.65625 0.65625 0.65625 0.4306640625
2308	3378451 26 3468 3468 7.0000361 7.0000361 1 2.625 2.625 2.625 6.890625
2309	3378477 14 3393 3393 7 7 1 1 1 1 1
2314	3378491 2660 54 11336 0.00001386 19.5000144 99 65535 65535 6487965 425188786275
2315	3381151 5276 54 11276 0.00001386 19.00011685 195 65523 65535 12779313 837491491179
2316	3386427 5301 54 11276 0.00001386 19.00011685 196 65536 66719 12960522 857039618074
2318	3391728 4900 54 11276 0.00001386 19.00011685 195 1 1184 115673 91899801
2319	3396628 4860 148 11336 0.00004458 19.5000144 194 1 1184 114921 90897209
2320	3401488 4902 148 11336 0.00004458 19.5000144 194 4 1552 150534 155707984
2321	3406390 4613 148 11336 0.00004458 19.5000144 195 0 39 2767 73495
2322	3411003 4459 148 11336 0.00004458 19.5000144 194 0 0 0 0
2324	3415462 22 148 148 0.00004458 0.00004458 1 1 1 1 1
2329	3415484 6735 54 11276 0.00001386 19.00011685 292 0 12 12 144
2331	3422219 4556 148 11336 0.00004458 19.5000144 194 0 31 1183 14785
2332	3426775 2665 148 11336 0.00004458 19.5000144 98 5832 146676 7472892 735180593616
2333	3429440 3125 148 11336 0.00004458 19.5000144 98 4294967295 4294967295 420906794910 1.8077809183817e+21
2334	3432565 2297 148 11336 0.00004458 19.5000144 98 0 0.5 12.501 6.250001
2335	3434862 3479 148 11336 0.00004458 19.5000144 98 0 0.262973584946 10.660184905447 1.9613321683834
2336	3438341 3493 148 11336 0.00004458 19.5000144 98 0.009651940823 0.65625 18.716369841211 5.1076525919807
2337	3441834 2789 148 11336 0.00004458 19.5000144 98 1 2.625 112.57834483315 138.05749692694
2343	3444623 78 55 6816 0.00001386 7.50121161 3 65535 65535 196605 12884508675
2344	3444701 79 55 6699 0.00001386 7.50116644 3 65535 65535 196605 12884508675
2345	3444780 104 55 6699 0.00001386 7.50116644 4 65536 65575 262222 17190095842
2347	3444884 69 55 6699 0.00001386 7.50116644 3 1 40 81 3201
2348	3444953 69 141 6816 0.00004399 7.50121161 3 1 40 42 1602
2349	3445022 69 141 6816 0.00004399 7.50121161 3 4 16 24 288
2350	3445091 69 141 6816 0.00004399 7.50121161 3 0 12 12 144
2351	3445160 46 3434 6816 7.00002256 7.50121161 2 0 0 0 0
2358	3445206 90 55 6699 0.00001386 7.50116644 4 0 0 0 0
2360	3445296 69 141 6816 0.00004399 7.50121161 3 0 39 39 1521
2361	3445365 26 6816 6816 7.50121161 7.50121161 1 5832 5832 5832 34012224
2362	3445391 32 6816 6816 7.50121161 7.50121161 1 4294967295 4294967295 4294967295 1.844674406512e+19
2363	3445423 45 141 6816 0.00004399 7.50121161 2 0 0 0 0
2364	3445468 45 141 6816 0.00004399 7.50121161 2 0 0 0 0
2365	3445513 60 141 6816 0.00004399 7.50121161 2 0.57421875 0.65625 1.23046875 0.76039123535156
2366	3445573 56 141 6816 0.00004399 7.50121161 2 2.296875 2.625 4.921875 12.166259765625
2372	3445629 1323 79 11438 0.00002256 19.50010778 49 65535 65535 3211215 210446975025
2373	3446952 2649 79 11461 0.00002256 19.50011685 97 65535 65535 6356895 416599113825
2374	3449601 2674 79 11461 0.00002256 19.50011685 98 65536 66112 6450752 424617122048
2376	3452275 2437 79 11461 0.00002256 19.50011685 97 1 577 28321 11007457
2377	3454712 2398 171 11456 0.00005146 19.50011685 96 1 565 27312 10405824
2378	3457110 2395 171 11456 0.00005146 19.50011685 96 6 476 23016 7374736
2379	3459505 2286 171 11461 0.00005146 19.50011685 96 0 20 720 9600
2380	3461791 2204 462 11456 1.00006864 19.50011685 95 0 0 0 0
2387	3463995 3381 79 11461 0.00002256 19.50011685 145 0 0 0 0
2389	3467376 2274 171 11456 0.00005146 19.50011685 96 0 12 576 6912
2390	3469650 1245 592 11438 1.00011984 19.50010778 47 5832 33420 586284 10584392688
2391	3470895 1507 592 11438 1.00011984 19.50010778 47 4294967295 4294967295 201863462865 8.6699697106062e+20
2392	3472402 1136 171 11438 0.00005146 19.50010778 48 0 0.5 6 2.999002
2393	3473538 1630 171 11438 0.00005146 19.50010778 48 0 0.237042255143 4.548116187254 0.67565869938066
2394	3475168 1711 171 11438 0.00005146 19.50010778 48 0.0618302999 0.65625 11.250403674288 3.3935350487699
2395	3476879 1408 171 11438 0.00005146 19.50010778 48 1 2.625 58.073264033001 75.914853179376
2401	3478287 1079 335 11421 1.00003773 19.50009237 39 65535 65535 2555865 167498612775
2402	3479366 2149 233 11448 1 19.50011589 78 65535 65535 5111730 334997225550
2403	3481515 2253 233 11448 1 19.50011589 79 65535 321583 24907329 7916271441129
2405	3483768 2222 233 11448 1 19.50011589 78 0 256048 19480058 4928456890838
2406	3485990 2209 335 11448 1.00003773 19.50011589 77 250005 255889 19474015 4925398812559
2407	3488199 2209 335 11448 1.00003773 19.50011589 77 250001 250191 19257487 4816244465847
2408	3490408 1802 341 11421 1.00003773 19.50009237 76 0 5 190 950
2409	3492210 1802 482 11448 1.00007493 19.50011589 76 0 0 0 0
2416	3494012 2738 233 11448 1 19.50011589 116 0 0 0 0
2418	3496750 1900 335 11448 1.00003773 19.50011589 77 0 159 6042 960678
2419	3498650 1050 482 11421 1.00007493 19.50009237 38 5832 59556 1242372 50252005296
2420	3499700 1243 482 11421 1.00007493 19.50009237 38 4294967295 4294967295 163208757210 7.0097627447455e+20
2421	3500943 901 482 11421 1.00007493 19.50009237 38 0 0 0 0
2422	3501844 901 482 11421 1.00007493 19.50009237 38 0 0 0 0
2423	3502745 1380 482 11421 1.00007493 19.50009237 38 0.004692100204 0.65625 5.217155298595 1.8374280817083
2424	3504125 985 482 11421 1.00007493 19.50009237 38 1 2.625 43.784212768084 55.92882764159
2430	3505110 1106 293 11482 1.00002296 19.50013109 40 65535 65535 2621400 171793449000
2431	3506216 2132 293 11391 1.00002296 19.50006621 77 65535 65535 5046195 330702389325
2432	3508348 2236 293 11391 1.00002296 19.50006621 78 315536 315726 24619218 7770588643558
2433	3510584 1091 437 11391 1.00006109 19.50006621 38 250006 255889 9612005 2431448156267
2434	3511675 2209 293 11391 1.00002296 19.50006621 77 250001 250191 19257487 4816244465847
2435	3513884 2210 399 11482 1.00005293 19.50013109 77 250001 250191 19257297 4816149429367
2436	3516094 2210 399 11482 1.00005293 19.50013109 77 250006 256048 19480058 4928456890838
2437	3518304 1901 399 11482 1.00005293 19.50013109 77 0 159 6042 960678
2438	3520205 1803 432 11482 1.00006109 19.50013109 76 0 0 0 0
2445	3522008 2725 293 11391 1.00002296 19.50006621 115 0 0 0 0
2447	3524733 1825 399 11482 1.00005293 19.50013109 77 0 5 190 950
2448	3526558 1051 603 11482 1.00012426 19.50013109 38 5832 59556 1242372 50252005296
2449	3527609 1244 603 11482 1.00012426 19.50013109 38 4294967295 4294967295 163208757210 7.0097627447455e+20
2450	3528853 924 399 11482 1.00005293 19.50013109 39 0 1 1 1
2451	3529777 1410 399 11482 1.00005293 19.50013109 39 0.000782016701 0.125 0.994525883102 0.066664668936202
2452	3531187 1413 399 11482 1.00005293 19.50013109 39 0.009132837897 0.78125 7.179814001148 3.0262348169352
2453	3532600 1045 399 11482 1.00005293 19.50013109 39 1 3.25 49.647350456813 75.937113636971

