file 4470791 1762352645                                         
version 3
run HardInLoop-0-20251104-12:03:13-31522
attr configname HardInLoop
attr datetime 20251104-12:03:13
attr datetimef 20251104-120313
attr experiment HardInLoop
attr inifile omnetpp.ini
attr iterationvars ""
attr iterationvarsd ""
attr iterationvarsf ""
attr measurement ""
attr network ModbusTest1
attr processid 31522
attr repetition 0
attr replication #0
attr resultdir results
attr runnumber 0
attr seedset 0
config image-path /home/llw/omnetpp-6.1/WorkSpace/inet4.5/images
config scheduler-class inet::RealTimeScheduler
config *.client[0].numApps 1
config *.client[0].app[0].typename ModbusSlaveHILApp
config *.client[0].app[0].localPort 502
config *.client[0].app[0].remoteAddress "\"113.54.185.18\""
config *.client[0].app[0].remotePort 502
config *.client[*].numApps 1
config *.client[*].app[0].typename ModbusSlaveApp
config *.client[*].app[0].localPort 502
config *.client[*].app[0].slavesConfigPath "\"SlaveConfig.json\""
config network ModbusTest1
config sim-time-limit 20s
config *.*.eth[*].bitrate 100Mbps
config *.numClients 2
config *.operatorStation.numApps 2
config *.operatorStation.app[0].typename OperatorStationApp
config *.operatorStation.app[0].connectAddress "\"server\""
config *.operatorStation.app[0].connectPort 1000
config *.operatorStation.app[0].interval 0.5s
config *.operatorStation.app[1].typename OperatorStationApp2
config *.operatorStation.app[1].connectAddress "\"server\""
config *.operatorStation.app[1].connectPort 666
config *.operatorStation.app[1].modbusRequest "\"client[0] 01 10 000B 0009 00 01 00 02 00 03 00 04 00 05 00 06 00 07 00 08 00 09;client[0] 01 05 0000 0001 00\""
config *.operatorStation.app[1].sendTime "\"4 5\""
config *.operatorStation.app[1].seed 0
config *.server.numApps 3
config *.server.app[0].typename ModbusMasterApp
config *.server.app[0].numConnect 2
config *.server.app[0].configFile "\"MasterConfig.json\""
config *.server.app[0].readInterval 0.5s
config *.server.app[1].typename ModbusTcpServerApp
config *.server.app[1].localPort 1000
config *.server.app[2].typename TransitApp
config *.server.app[2].localPort 666
config **.tcp.typename Tcp
config **.tcp.advertisedWindow 65535
config **.tcp.delayedAcksEnabled false
config **.tcp.nagleEnabled false
config **.tcp.limitedTransmitEnabled true
config **.tcp.increasedIWEnabled true
config **.tcp.sackSupport true
config **.tcp.windowScalingSupport true
config **.tcp.timestampSupport true
config **.tcp.mss 1452
config **.tcp.tcpAlgorithmClass "\"TcpReno\""
config **.crcMode "\"computed\""
config **.fcsMode "\"computed\""
config *.server.numPcapRecorders 1
config *.server.pcapRecorder[*].pcapFile "\"results/server.pcap\""
config *.visualizer.interfaceTableVisualizer.displayInterfaceTables true

vector 0 ModbusTest1.operatorStation.ethernet.macHeaderInserter incomingPacketLengths:vector ETV
attr interpolationmode none
attr recordingmode vector
attr source "packetLength(merge(packetPushedIn, packetPulledIn))"
attr title "incoming packet lengths"
attr unit b
0	608204 1880 35 17265 0 19.50009646 84 416 744 37112 16553920
vector 1 ModbusTest1.operatorStation.ethernet.macHeaderInserter incomingDataRate:vector ETV
attr interpolationmode linear
attr recordingmode vector
attr source "throughput(merge(packetPushedIn, packetPulledIn))"
attr title "incoming data rate"
attr unit bps
1	610084 2785 892 17125 0.1 19.5 195 0 20320 362400 3750553600
vector 2 ModbusTest1.operatorStation.ethernet.macHeaderInserter outgoingPacketLengths:vector ETV
attr interpolationmode none
attr recordingmode vector
attr source "packetLength(merge(packetPushedOut, packetPulledOut))"
attr title "outgoing packet lengths"
attr unit b
2	612869 1880 35 17265 0 19.50009646 84 528 856 46520 25920704
vector 3 ModbusTest1.operatorStation.ethernet.macHeaderInserter outgoingDataRate:vector ETV
attr interpolationmode linear
attr recordingmode vector
attr source "throughput(merge(packetPushedOut, packetPulledOut))"
attr title "outgoing data rate"
attr unit bps
3	614749 2820 892 17125 0.1 19.5 195 0 24800 454240 5865113600
vector 8 ModbusTest1.operatorStation.ethernet.paddingInserter incomingPacketLengths:vector ETV
attr interpolationmode none
attr recordingmode vector
attr source "packetLength(merge(packetPushedIn, packetPulledIn))"
attr title "incoming packet lengths"
attr unit b
8	617569 1880 35 17265 0 19.50009646 84 528 856 46520 25920704
vector 9 ModbusTest1.operatorStation.ethernet.paddingInserter incomingDataRate:vector ETV
attr interpolationmode linear
attr recordingmode vector
attr source "throughput(merge(packetPushedIn, packetPulledIn))"
attr title "incoming data rate"
attr unit bps
9	619449 2820 892 17125 0.1 19.5 195 0 24800 454240 5865113600
vector 10 ModbusTest1.operatorStation.ethernet.paddingInserter outgoingPacketLengths:vector ETV
attr interpolationmode none
attr recordingmode vector
attr source "packetLength(merge(packetPushedOut, packetPulledOut))"
attr title "outgoing packet lengths"
attr unit b
10	622269 1964 35 17265 0 19.50009646 84 528 856 46520 25920704
vector 11 ModbusTest1.operatorStation.ethernet.paddingInserter outgoingDataRate:vector ETV
attr interpolationmode linear
attr recordingmode vector
attr source "throughput(merge(packetPushedOut, packetPulledOut))"
attr title "outgoing data rate"
attr unit bps
11	624233 3015 892 17125 0.1 19.5 195 0 24800 454240 5865113600
vector 16 ModbusTest1.operatorStation.ethernet.fcsInserter incomingPacketLengths:vector ETV
attr interpolationmode none
attr recordingmode vector
attr source "packetLength(merge(packetPushedIn, packetPulledIn))"
attr title "incoming packet lengths"
attr unit b
16	627248 1964 35 17265 0 19.50009646 84 528 856 46520 25920704
vector 17 ModbusTest1.operatorStation.ethernet.fcsInserter incomingDataRate:vector ETV
attr interpolationmode linear
attr recordingmode vector
attr source "throughput(merge(packetPushedIn, packetPulledIn))"
attr title "incoming data rate"
attr unit bps
17	629212 3015 892 17125 0.1 19.5 195 0 24800 454240 5865113600
vector 18 ModbusTest1.operatorStation.ethernet.fcsInserter outgoingPacketLengths:vector ETV
attr interpolationmode none
attr recordingmode vector
attr source "packetLength(merge(packetPushedOut, packetPulledOut))"
attr title "outgoing packet lengths"
attr unit b
18	632227 1964 35 17265 0 19.50009646 84 560 888 49208 28984000
vector 19 ModbusTest1.operatorStation.ethernet.fcsInserter outgoingDataRate:vector ETV
attr interpolationmode linear
attr recordingmode vector
attr source "throughput(merge(packetPushedOut, packetPulledOut))"
attr title "outgoing data rate"
attr unit bps
19	634191 3015 892 17125 0.1 19.5 195 0 26080 480480 6555904000
vector 24 ModbusTest1.operatorStation.ethernet.macHeaderChecker incomingPacketLengths:vector ETV
attr interpolationmode none
attr recordingmode vector
attr source "packetLength(merge(packetPushedIn, packetPulledIn))"
attr title "incoming packet lengths"
attr unit b
24	637206 1994 103 17260 0.00002954 19.50009646 82 528 1800 91952 135751040
vector 25 ModbusTest1.operatorStation.ethernet.macHeaderChecker incomingDataRate:vector ETV
attr interpolationmode linear
attr recordingmode vector
attr source "throughput(merge(packetPushedIn, packetPulledIn))"
attr title "incoming data rate"
attr unit bps
25	639200 3014 946 17204 0.1 19.5 195 0 34800 896240 21736352000
vector 26 ModbusTest1.operatorStation.ethernet.macHeaderChecker outgoingPacketLengths:vector ETV
attr interpolationmode none
attr recordingmode vector
attr source "packetLength(merge(packetPushedOut, packetPulledOut))"
attr title "outgoing packet lengths"
attr unit b
26	642214 1994 103 17260 0.00002954 19.50009646 82 416 1688 82768 116182400
vector 27 ModbusTest1.operatorStation.ethernet.macHeaderChecker outgoingDataRate:vector ETV
attr interpolationmode linear
attr recordingmode vector
attr source "throughput(merge(packetPushedOut, packetPulledOut))"
attr title "outgoing data rate"
attr unit bps
27	644208 3014 946 17204 0.1 19.5 195 0 30320 806640 17580524800
vector 29 ModbusTest1.operatorStation.ethernet.macHeaderChecker droppedDataRate:vector ETV
attr interpolationmode linear
attr recordingmode vector
attr source throughput(packetDropped)
attr title "dropped data rate"
attr unit bps
29	647222 3061 17524 17524 0.1 20 200 0 0 0 0
vector 36 ModbusTest1.operatorStation.ethernet.fcsChecker incomingPacketLengths:vector ETV
attr interpolationmode none
attr recordingmode vector
attr source "packetLength(merge(packetPushedIn, packetPulledIn))"
attr title "incoming packet lengths"
attr unit b
36	650283 1994 103 17260 0.00002954 19.50009646 82 560 1832 94576 141719936
vector 37 ModbusTest1.operatorStation.ethernet.fcsChecker incomingDataRate:vector ETV
attr interpolationmode linear
attr recordingmode vector
attr source "throughput(merge(packetPushedIn, packetPulledIn))"
attr title "incoming data rate"
attr unit bps
37	652277 3014 946 17204 0.1 19.5 195 0 36080 921840 23005753600
vector 38 ModbusTest1.operatorStation.ethernet.fcsChecker outgoingPacketLengths:vector ETV
attr interpolationmode none
attr recordingmode vector
attr source "packetLength(merge(packetPushedOut, packetPulledOut))"
attr title "outgoing packet lengths"
attr unit b
38	655291 1994 103 17260 0.00002954 19.50009646 82 528 1800 91952 135751040
vector 39 ModbusTest1.operatorStation.ethernet.fcsChecker outgoingDataRate:vector ETV
attr interpolationmode linear
attr recordingmode vector
attr source "throughput(merge(packetPushedOut, packetPulledOut))"
attr title "outgoing data rate"
attr unit bps
39	657285 3014 946 17204 0.1 19.5 195 0 34800 896240 21736352000
vector 41 ModbusTest1.operatorStation.ethernet.fcsChecker droppedDataRate:vector ETV
attr interpolationmode linear
attr recordingmode vector
attr source throughput(packetDropped)
attr title "dropped data rate"
attr unit bps
41	660299 3061 17524 17524 0.1 20 200 0 0 0 0
vector 52 ModbusTest1.operatorStation.eth[0].macLayer.queue queueLength:vector ETV
attr autoWarmupFilter false
attr interpolationmode sample-hold
attr recordingmode vector
attr source "warmup(atomic(constant0(packetPushEnded) + count(packetPushStarted) - count(packetPulled) - count(packetRemoved) - count(packetDropped)))"
attr title "queue length"
attr unit pk
52	663360 3637 0 17266 0 19.50009646 173 0 1 84 84
vector 53 ModbusTest1.operatorStation.eth[0].macLayer.queue queueBitLength:vector ETV
attr autoWarmupFilter false
attr interpolationmode sample-hold
attr recordingmode vector
attr source "warmup(atomic(constant0(packetPushEnded) + sum(packetLength(packetPushStarted)) - sum(packetLength(packetPulled)) - sum(packetLength(packetRemoved)) - sum(packetLength(packetDropped))))"
attr title "queue bit length"
attr unit b
53	666997 3805 0 17266 0 19.50009646 173 0 888 49208 28984000
vector 54 ModbusTest1.operatorStation.eth[0].macLayer.queue queueingTime:vector ETV
attr interpolationmode none
attr recordingmode vector
attr source queueingTime(packetPulled)
attr title "queueing times"
attr unit s
54	670802 1802 37 17266 0 19.50009646 84 0 7.2e-06 7.2e-06 5.184e-11
vector 55 ModbusTest1.operatorStation.eth[0].macLayer.queue incomingPacketLengths:vector ETV
attr interpolationmode none
attr recordingmode vector
attr source packetLength(packetPushStarted)
attr title "incoming packet lengths"
attr unit b
55	672604 1964 35 17265 0 19.50009646 84 560 888 49208 28984000
vector 56 ModbusTest1.operatorStation.eth[0].macLayer.queue incomingDataRate:vector ETV
attr interpolationmode linear
attr recordingmode vector
attr source throughput(packetPushStarted)
attr title "incoming datarate"
attr unit bps
56	674568 3097 892 17524 0.1 20 200 0 26080 492080 6690464000
vector 57 ModbusTest1.operatorStation.eth[0].macLayer.queue outgoingPacketLengths:vector ETV
attr interpolationmode none
attr recordingmode vector
attr source packetLength(packetPulled)
attr title "outgoing packet lengths"
attr unit b
57	677665 1964 37 17266 0 19.50009646 84 560 888 49208 28984000
vector 58 ModbusTest1.operatorStation.eth[0].macLayer.queue outgoingDataRate:vector ETV
attr interpolationmode linear
attr recordingmode vector
attr source throughput(packetPulled)
attr title "outgoing datarate"
attr unit bps
58	679629 3097 894 17524 0.1 20 200 0 26080 492080 6690464000
vector 63 ModbusTest1.operatorStation.eth[0].macLayer.server incomingPacketLengths:vector ETV
attr interpolationmode none
attr recordingmode vector
attr source packetLength(packetPulled)
attr title "incoming packet lengths"
attr unit b
63	682726 1964 37 17266 0 19.50009646 84 560 888 49208 28984000
vector 64 ModbusTest1.operatorStation.eth[0].macLayer.server incomingDataRate:vector ETV
attr interpolationmode linear
attr recordingmode vector
attr source throughput(packetPulled)
attr title "incoming datarate"
attr unit bps
64	684690 3097 894 17524 0.1 20 200 0 26080 492080 6690464000
vector 65 ModbusTest1.operatorStation.eth[0].macLayer.server outgoingPacketLengths:vector ETV
attr interpolationmode none
attr recordingmode vector
attr source packetLength(packetPushed)
attr title "outgoing packet lengths"
attr unit b
65	687787 1964 37 17266 0 19.50009646 84 560 888 49208 28984000
vector 66 ModbusTest1.operatorStation.eth[0].macLayer.server outgoingDataRate:vector ETV
attr interpolationmode linear
attr recordingmode vector
attr source throughput(packetPushed)
attr title "outgoing datarate"
attr unit bps
66	689751 3097 894 17524 0.1 20 200 0 26080 492080 6690464000
vector 67 ModbusTest1.operatorStation.eth[0].macLayer.outboundEmitter incomingPacketLengths:vector ETV
attr interpolationmode none
attr recordingmode vector
attr source "packetLength(merge(packetPushedIn, packetPulledIn))"
attr title "incoming packet lengths"
attr unit b
67	692848 1964 37 17266 0 19.50009646 84 560 888 49208 28984000
vector 68 ModbusTest1.operatorStation.eth[0].macLayer.outboundEmitter incomingDataRate:vector ETV
attr interpolationmode linear
attr recordingmode vector
attr source "throughput(merge(packetPushedIn, packetPulledIn))"
attr title "incoming data rate"
attr unit bps
68	694812 3015 894 17126 0.1 19.5 195 0 26080 480480 6555904000
vector 69 ModbusTest1.operatorStation.eth[0].macLayer.outboundEmitter outgoingPacketLengths:vector ETV
attr interpolationmode none
attr recordingmode vector
attr source "packetLength(merge(packetPushedOut, packetPulledOut))"
attr title "outgoing packet lengths"
attr unit b
69	697827 1964 37 17266 0 19.50009646 84 560 888 49208 28984000
vector 70 ModbusTest1.operatorStation.eth[0].macLayer.outboundEmitter outgoingDataRate:vector ETV
attr interpolationmode linear
attr recordingmode vector
attr source "throughput(merge(packetPushedOut, packetPulledOut))"
attr title "outgoing data rate"
attr unit bps
70	699791 3015 894 17126 0.1 19.5 195 0 26080 480480 6555904000
vector 75 ModbusTest1.operatorStation.eth[0].macLayer.fcsChecker incomingPacketLengths:vector ETV
attr interpolationmode none
attr recordingmode vector
attr source "packetLength(merge(packetPushedIn, packetPulledIn))"
attr title "incoming packet lengths"
attr unit b
75	702806 1994 103 17260 0.00002954 19.50009646 82 560 1832 94576 141719936
vector 76 ModbusTest1.operatorStation.eth[0].macLayer.fcsChecker incomingDataRate:vector ETV
attr interpolationmode linear
attr recordingmode vector
attr source "throughput(merge(packetPushedIn, packetPulledIn))"
attr title "incoming data rate"
attr unit bps
76	704800 3014 946 17204 0.1 19.5 195 0 36080 921840 23005753600
vector 77 ModbusTest1.operatorStation.eth[0].macLayer.fcsChecker outgoingPacketLengths:vector ETV
attr interpolationmode none
attr recordingmode vector
attr source "packetLength(merge(packetPushedOut, packetPulledOut))"
attr title "outgoing packet lengths"
attr unit b
77	707814 1994 103 17260 0.00002954 19.50009646 82 560 1832 94576 141719936
vector 78 ModbusTest1.operatorStation.eth[0].macLayer.fcsChecker outgoingDataRate:vector ETV
attr interpolationmode linear
attr recordingmode vector
attr source "throughput(merge(packetPushedOut, packetPulledOut))"
attr title "outgoing data rate"
attr unit bps
78	709808 3014 946 17204 0.1 19.5 195 0 36080 921840 23005753600
vector 80 ModbusTest1.operatorStation.eth[0].macLayer.fcsChecker droppedDataRate:vector ETV
attr interpolationmode linear
attr recordingmode vector
attr source throughput(packetDropped)
attr title "dropped data rate"
attr unit bps
80	712822 3061 17524 17524 0.1 20 200 0 0 0 0
vector 87 ModbusTest1.operatorStation.eth[0].macLayer.inboundEmitter incomingPacketLengths:vector ETV
attr interpolationmode none
attr recordingmode vector
attr source "packetLength(merge(packetPushedIn, packetPulledIn))"
attr title "incoming packet lengths"
attr unit b
87	715883 1994 103 17260 0.00002954 19.50009646 82 560 1832 94576 141719936
vector 88 ModbusTest1.operatorStation.eth[0].macLayer.inboundEmitter incomingDataRate:vector ETV
attr interpolationmode linear
attr recordingmode vector
attr source "throughput(merge(packetPushedIn, packetPulledIn))"
attr title "incoming data rate"
attr unit bps
88	717877 3014 946 17204 0.1 19.5 195 0 36080 921840 23005753600
vector 89 ModbusTest1.operatorStation.eth[0].macLayer.inboundEmitter outgoingPacketLengths:vector ETV
attr interpolationmode none
attr recordingmode vector
attr source "packetLength(merge(packetPushedOut, packetPulledOut))"
attr title "outgoing packet lengths"
attr unit b
89	720891 1994 103 17260 0.00002954 19.50009646 82 560 1832 94576 141719936
vector 90 ModbusTest1.operatorStation.eth[0].macLayer.inboundEmitter outgoingDataRate:vector ETV
attr interpolationmode linear
attr recordingmode vector
attr source "throughput(merge(packetPushedOut, packetPulledOut))"
attr title "outgoing data rate"
attr unit bps
90	722885 3014 946 17204 0.1 19.5 195 0 36080 921840 23005753600
vector 95 ModbusTest1.operatorStation.eth[0].phyLayer.phyHeaderInserter incomingPacketLengths:vector ETV
attr interpolationmode none
attr recordingmode vector
attr source "packetLength(merge(packetPushedIn, packetPulledIn))"
attr title "incoming packet lengths"
attr unit b
95	725899 1964 37 17266 0 19.50009646 84 560 888 49208 28984000
vector 96 ModbusTest1.operatorStation.eth[0].phyLayer.phyHeaderInserter incomingDataRate:vector ETV
attr interpolationmode linear
attr recordingmode vector
attr source "throughput(merge(packetPushedIn, packetPulledIn))"
attr title "incoming data rate"
attr unit bps
96	727863 3015 894 17126 0.1 19.5 195 0 26080 480480 6555904000
vector 97 ModbusTest1.operatorStation.eth[0].phyLayer.phyHeaderInserter outgoingPacketLengths:vector ETV
attr interpolationmode none
attr recordingmode vector
attr source "packetLength(merge(packetPushedOut, packetPulledOut))"
attr title "outgoing packet lengths"
attr unit b
97	730878 1964 37 17266 0 19.50009646 84 624 952 54584 35626688
vector 98 ModbusTest1.operatorStation.eth[0].phyLayer.phyHeaderInserter outgoingDataRate:vector ETV
attr interpolationmode linear
attr recordingmode vector
attr source "throughput(merge(packetPushedOut, packetPulledOut))"
attr title "outgoing data rate"
attr unit bps
98	732842 3015 894 17126 0.1 19.5 195 0 28640 532960 8052992000
vector 103 ModbusTest1.operatorStation.eth[0].phyLayer.interFrameGapInserter interpacketGap:vector ETV
attr interpolationmode sample-hold
attr recordingmode vector
attr source "count(interpacketGapStarted) - count(interpacketGapEnded)"
attr title "interpacket gap state"
attr type int
103	735857 3813 0 17275 0 19.50010366 170 0 1 84 84
vector 104 ModbusTest1.operatorStation.eth[0].phyLayer.outboundEmitter incomingPacketLengths:vector ETV
attr interpolationmode none
attr recordingmode vector
attr source "packetLength(merge(packetPushedIn, packetPulledIn))"
attr title "incoming packet lengths"
attr unit b
104	739670 2048 37 17266 0 19.50009646 84 624 952 54584 35626688
vector 105 ModbusTest1.operatorStation.eth[0].phyLayer.outboundEmitter incomingDataRate:vector ETV
attr interpolationmode linear
attr recordingmode vector
attr source "throughput(merge(packetPushedIn, packetPulledIn))"
attr title "incoming data rate"
attr unit bps
105	741718 3210 894 17126 0.1 19.5 195 0 28640 532960 8052992000
vector 106 ModbusTest1.operatorStation.eth[0].phyLayer.outboundEmitter outgoingPacketLengths:vector ETV
attr interpolationmode none
attr recordingmode vector
attr source "packetLength(merge(packetPushedOut, packetPulledOut))"
attr title "outgoing packet lengths"
attr unit b
106	744928 2048 37 17266 0 19.50009646 84 624 952 54584 35626688
vector 107 ModbusTest1.operatorStation.eth[0].phyLayer.outboundEmitter outgoingDataRate:vector ETV
attr interpolationmode linear
attr recordingmode vector
attr source "throughput(merge(packetPushedOut, packetPulledOut))"
attr title "outgoing data rate"
attr unit bps
107	746976 3210 894 17126 0.1 19.5 195 0 28640 532960 8052992000
vector 112 ModbusTest1.operatorStation.eth[0].phyLayer.transmitter transmitting:vector ETV
attr interpolationmode sample-hold
attr recordingmode vector
attr source "count(transmissionStarted) - count(transmissionEnded)"
attr title "transmitting state"
attr type int
112	750186 3777 0 17271 0 19.5001027 170 0 1 84 84
vector 113 ModbusTest1.operatorStation.eth[0].phyLayer.transmitter throughput:vector ETV
attr interpolationmode linear
attr recordingmode vector
attr source throughput(transmissionEnded)
attr title throughput
attr unit bps
113	753963 3297 898 17524 0.1 20 200 0 28640 545840 8218886400
vector 114 ModbusTest1.operatorStation.eth[0].phyLayer.transmitter utilization:vector ETV
attr interpolationmode linear
attr recordingmode vector
attr source "100 * utilization(count(transmissionStarted) - count(transmissionEnded))"
attr title utilization
attr unit %
114	757260 3284 894 17126 0.1 19.5 195 0 0.02864 0.53296 0.008052992
vector 115 ModbusTest1.operatorStation.eth[0].phyLayer.transmitter transmissionTime:vector ETV
attr interpolationmode none
attr recordingmode vector
attr source packetDuration(transmissionEnded)
attr title "transmission time"
attr unit s
115	760544 2465 39 17271 0.00000688 19.5001027 84 6.24e-06 9.52e-06 0.00054584 3.5626688e-09
vector 117 ModbusTest1.operatorStation.eth[0].phyLayer.phyHeaderChecker incomingPacketLengths:vector ETV
attr interpolationmode none
attr recordingmode vector
attr source "packetLength(merge(packetPushedIn, packetPulledIn))"
attr title "incoming packet lengths"
attr unit b
117	763009 2076 103 17260 0.00002954 19.50009646 82 624 1896 99824 154161536
vector 118 ModbusTest1.operatorStation.eth[0].phyLayer.phyHeaderChecker incomingDataRate:vector ETV
attr interpolationmode linear
attr recordingmode vector
attr source "throughput(merge(packetPushedIn, packetPulledIn))"
attr title "incoming data rate"
attr unit bps
118	765085 3209 946 17204 0.1 19.5 195 0 38640 973040 25653920000
vector 119 ModbusTest1.operatorStation.eth[0].phyLayer.phyHeaderChecker outgoingPacketLengths:vector ETV
attr interpolationmode none
attr recordingmode vector
attr source "packetLength(merge(packetPushedOut, packetPulledOut))"
attr title "outgoing packet lengths"
attr unit b
119	768294 2076 103 17260 0.00002954 19.50009646 82 560 1832 94576 141719936
vector 120 ModbusTest1.operatorStation.eth[0].phyLayer.phyHeaderChecker outgoingDataRate:vector ETV
attr interpolationmode linear
attr recordingmode vector
attr source "throughput(merge(packetPushedOut, packetPulledOut))"
attr title "outgoing data rate"
attr unit bps
120	770370 3209 946 17204 0.1 19.5 195 0 36080 921840 23005753600
vector 122 ModbusTest1.operatorStation.eth[0].phyLayer.phyHeaderChecker droppedDataRate:vector ETV
attr interpolationmode linear
attr recordingmode vector
attr source throughput(packetDropped)
attr title "dropped data rate"
attr unit bps
122	773579 3261 17524 17524 0.1 20 200 0 0 0 0
vector 129 ModbusTest1.operatorStation.eth[0].phyLayer.inboundEmitter incomingPacketLengths:vector ETV
attr interpolationmode none
attr recordingmode vector
attr source "packetLength(merge(packetPushedIn, packetPulledIn))"
attr title "incoming packet lengths"
attr unit b
129	776840 2076 103 17260 0.00002954 19.50009646 82 624 1896 99824 154161536
vector 130 ModbusTest1.operatorStation.eth[0].phyLayer.inboundEmitter incomingDataRate:vector ETV
attr interpolationmode linear
attr recordingmode vector
attr source "throughput(merge(packetPushedIn, packetPulledIn))"
attr title "incoming data rate"
attr unit bps
130	778916 3209 946 17204 0.1 19.5 195 0 38640 973040 25653920000
vector 131 ModbusTest1.operatorStation.eth[0].phyLayer.inboundEmitter outgoingPacketLengths:vector ETV
attr interpolationmode none
attr recordingmode vector
attr source "packetLength(merge(packetPushedOut, packetPulledOut))"
attr title "outgoing packet lengths"
attr unit b
131	782125 2076 103 17260 0.00002954 19.50009646 82 624 1896 99824 154161536
vector 132 ModbusTest1.operatorStation.eth[0].phyLayer.inboundEmitter outgoingDataRate:vector ETV
attr interpolationmode linear
attr recordingmode vector
attr source "throughput(merge(packetPushedOut, packetPulledOut))"
attr title "outgoing data rate"
attr unit bps
132	784201 3209 946 17204 0.1 19.5 195 0 38640 973040 25653920000
vector 137 ModbusTest1.operatorStation.eth[0].phyLayer.receiver throughput:vector ETV
attr interpolationmode linear
attr recordingmode vector
attr source throughput(receptionEnded)
attr title throughput
attr unit bps
137	787410 3296 946 17524 0.1 20 200 0 38640 998240 26288960000
vector 138 ModbusTest1.operatorStation.eth[0].phyLayer.receiver receptionTime:vector ETV
attr interpolationmode none
attr recordingmode vector
attr source packetDuration(receptionEnded)
attr title "reception time"
attr unit s
138	790706 2484 103 17260 0.00002954 19.50009646 82 6.24e-06 1.896e-05 0.00099824 1.54161536e-08
vector 142 ModbusTest1.operatorStation.eth[1].macLayer.queue queueLength:vector ETV
attr autoWarmupFilter false
attr interpolationmode sample-hold
attr recordingmode vector
attr source "warmup(atomic(constant0(packetPushEnded) + count(packetPushStarted) - count(packetPulled) - count(packetRemoved) - count(packetDropped)))"
attr title "queue length"
attr unit pk
142	793190 50 0 0 0 0 5 0 0 0 0
vector 143 ModbusTest1.operatorStation.eth[1].macLayer.queue queueBitLength:vector ETV
attr autoWarmupFilter false
attr interpolationmode sample-hold
attr recordingmode vector
attr source "warmup(atomic(constant0(packetPushEnded) + sum(packetLength(packetPushStarted)) - sum(packetLength(packetPulled)) - sum(packetLength(packetRemoved)) - sum(packetLength(packetDropped))))"
attr title "queue bit length"
attr unit b
143	793240 50 0 0 0 0 5 0 0 0 0
vector 146 ModbusTest1.operatorStation.eth[1].macLayer.queue incomingDataRate:vector ETV
attr interpolationmode linear
attr recordingmode vector
attr source throughput(packetPushStarted)
attr title "incoming datarate"
attr unit bps
146	793290 3261 17524 17524 0.1 20 200 0 0 0 0
vector 148 ModbusTest1.operatorStation.eth[1].macLayer.queue outgoingDataRate:vector ETV
attr interpolationmode linear
attr recordingmode vector
attr source throughput(packetPulled)
attr title "outgoing datarate"
attr unit bps
148	796551 3261 17524 17524 0.1 20 200 0 0 0 0
vector 154 ModbusTest1.operatorStation.eth[1].macLayer.server incomingDataRate:vector ETV
attr interpolationmode linear
attr recordingmode vector
attr source throughput(packetPulled)
attr title "incoming datarate"
attr unit bps
154	799812 3261 17524 17524 0.1 20 200 0 0 0 0
vector 156 ModbusTest1.operatorStation.eth[1].macLayer.server outgoingDataRate:vector ETV
attr interpolationmode linear
attr recordingmode vector
attr source throughput(packetPushed)
attr title "outgoing datarate"
attr unit bps
156	803073 3261 17524 17524 0.1 20 200 0 0 0 0
vector 170 ModbusTest1.operatorStation.eth[1].macLayer.fcsChecker droppedDataRate:vector ETV
attr interpolationmode linear
attr recordingmode vector
attr source throughput(packetDropped)
attr title "dropped data rate"
attr unit bps
170	806334 3261 17524 17524 0.1 20 200 0 0 0 0
vector 193 ModbusTest1.operatorStation.eth[1].phyLayer.interFrameGapInserter interpacketGap:vector ETV
attr interpolationmode sample-hold
attr recordingmode vector
attr source "count(interpacketGapStarted) - count(interpacketGapEnded)"
attr title "interpacket gap state"
attr type int
193	809595 20 0 0 0 0 2 0 0 0 0
vector 202 ModbusTest1.operatorStation.eth[1].phyLayer.transmitter transmitting:vector ETV
attr interpolationmode sample-hold
attr recordingmode vector
attr source "count(transmissionStarted) - count(transmissionEnded)"
attr title "transmitting state"
attr type int
202	809615 20 0 0 0 0 2 0 0 0 0
vector 203 ModbusTest1.operatorStation.eth[1].phyLayer.transmitter throughput:vector ETV
attr interpolationmode linear
attr recordingmode vector
attr source throughput(transmissionEnded)
attr title throughput
attr unit bps
203	809635 3261 17524 17524 0.1 20 200 0 0 0 0
vector 212 ModbusTest1.operatorStation.eth[1].phyLayer.phyHeaderChecker droppedDataRate:vector ETV
attr interpolationmode linear
attr recordingmode vector
attr source throughput(packetDropped)
attr title "dropped data rate"
attr unit bps
212	812896 3261 17524 17524 0.1 20 200 0 0 0 0
vector 227 ModbusTest1.operatorStation.eth[1].phyLayer.receiver throughput:vector ETV
attr interpolationmode linear
attr recordingmode vector
attr source throughput(receptionEnded)
attr title throughput
attr unit bps
227	816157 3261 17524 17524 0.1 20 200 0 0 0 0
vector 240 ModbusTest1.operatorStation.udp passedUpPk:vector(count) ETV
attr interpolationmode none
attr recordingmode vector(count)
attr source packetSentToUpper
attr title "packets passed up, count"
240	819418 10 0 0 0 0 1 0 0 0 0
vector 241 ModbusTest1.operatorStation.udp droppedPkWrongPort:vector(count) ETV
attr interpolationmode none
attr recordingmode vector(count)
attr source packetDropReasonIsNoPortFound(packetDropped)
attr title "packets dropped (wrong port), count"
241	819428 10 0 0 0 0 1 0 0 0 0
vector 242 ModbusTest1.operatorStation.udp droppedPkBadChecksum:vector(count) ETV
attr interpolationmode none
attr recordingmode vector(count)
attr source packetDropReasonIsIncorrectlyReceived(packetDropped)
attr title "packets dropped (checksum error), count"
242	819438 10 0 0 0 0 1 0 0 0 0
vector 243 ModbusTest1.operatorStation.app[0] packetReceived:vector(packetBytes) ETV
attr interpolationmode none
attr recordingmode vector(packetBytes)
attr source packetReceived
attr title "packets received, packetBytes"
243	819448 949 1109 17263 1.00009646 19.50009646 38 159 159 6042 960678
vector 244 ModbusTest1.operatorStation.app[0] packetSent:vector(packetBytes) ETV
attr interpolationmode none
attr recordingmode vector(packetBytes)
attr source packetSent
attr title "packets sent, packetBytes"
244	820397 872 950 17122 1.00002772 19.50002772 38 5 5 190 950
vector 246 ModbusTest1.operatorStation.app[0] numActiveSessions:vector ETV
attr autoWarmupFilter false
attr interpolationmode sample-hold
attr recordingmode vector
attr source warmup(sum(connect))
attr title "number of active sessions"
246	821269 22 0 886 0 1 2 0 1 1 1
vector 248 ModbusTest1.operatorStation.app[1] packetSent:vector(packetBytes) ETV
attr interpolationmode none
attr recordingmode vector(packetBytes)
attr source packetSent
attr title "packets sent, packetBytes"
248	821291 28 3513 4495 4 5 2 24 41 65 2257
vector 250 ModbusTest1.operatorStation.app[1] numActiveSessions:vector ETV
attr autoWarmupFilter false
attr interpolationmode sample-hold
attr recordingmode vector
attr source warmup(sum(connect))
attr title "number of active sessions"
250	821319 21 0 19 0 0 2 0 1 1 1
vector 251 ModbusTest1.switch1.bridging.directionReverser.reverser incomingPacketLengths:vector ETV
attr interpolationmode none
attr recordingmode vector
attr source "packetLength(merge(packetPushedIn, packetPulledIn))"
attr title "incoming packet lengths"
attr unit b
251	821340 28353 40 17507 0.00000693 19.50026141 1139 416 1688 575424 349439872
vector 252 ModbusTest1.switch1.bridging.directionReverser.reverser incomingDataRate:vector ETV
attr interpolationmode linear
attr recordingmode vector
attr source "throughput(merge(packetPushedIn, packetPulledIn))"
attr title "incoming data rate"
attr unit bps
252	849693 3253 525 17095 0.1 19.5 195 0 183040 5612160 811735859200
vector 253 ModbusTest1.switch1.bridging.directionReverser.reverser outgoingPacketLengths:vector ETV
attr interpolationmode none
attr recordingmode vector
attr source "packetLength(merge(packetPushedOut, packetPulledOut))"
attr title "outgoing packet lengths"
attr unit b
253	852946 28353 40 17507 0.00000693 19.50026141 1139 416 1688 575424 349439872
vector 254 ModbusTest1.switch1.bridging.directionReverser.reverser outgoingDataRate:vector ETV
attr interpolationmode linear
attr recordingmode vector
attr source "throughput(merge(packetPushedOut, packetPulledOut))"
attr title "outgoing data rate"
attr unit bps
254	881299 3253 525 17095 0.1 19.5 195 0 183040 5612160 811735859200
vector 261 ModbusTest1.switch1.bridging.interfaceRelay.learner incomingPacketLengths:vector ETV
attr interpolationmode none
attr recordingmode vector
attr source "packetLength(merge(packetPushedIn, packetPulledIn))"
attr title "incoming packet lengths"
attr unit b
261	884552 28353 40 17507 0.00000693 19.50026141 1139 416 1688 575424 349439872
vector 262 ModbusTest1.switch1.bridging.interfaceRelay.learner incomingDataRate:vector ETV
attr interpolationmode linear
attr recordingmode vector
attr source "throughput(merge(packetPushedIn, packetPulledIn))"
attr title "incoming data rate"
attr unit bps
262	912905 3253 525 17095 0.1 19.5 195 0 183040 5612160 811735859200
vector 263 ModbusTest1.switch1.bridging.interfaceRelay.learner outgoingPacketLengths:vector ETV
attr interpolationmode none
attr recordingmode vector
attr source "packetLength(merge(packetPushedOut, packetPulledOut))"
attr title "outgoing packet lengths"
attr unit b
263	916158 28353 40 17507 0.00000693 19.50026141 1139 416 1688 575424 349439872
vector 264 ModbusTest1.switch1.bridging.interfaceRelay.learner outgoingDataRate:vector ETV
attr interpolationmode linear
attr recordingmode vector
attr source "throughput(merge(packetPushedOut, packetPulledOut))"
attr title "outgoing data rate"
attr unit bps
264	944511 3253 525 17095 0.1 19.5 195 0 183040 5612160 811735859200
vector 270 ModbusTest1.switch1.ethernet.macHeaderInserter incomingPacketLengths:vector ETV
attr interpolationmode none
attr recordingmode vector
attr source "packetLength(merge(packetPushedIn, packetPulledIn))"
attr title "incoming packet lengths"
attr unit b
270	947764 28353 40 17507 0.00000693 19.50026141 1139 416 1688 575424 349439872
vector 271 ModbusTest1.switch1.ethernet.macHeaderInserter incomingDataRate:vector ETV
attr interpolationmode linear
attr recordingmode vector
attr source "throughput(merge(packetPushedIn, packetPulledIn))"
attr title "incoming data rate"
attr unit bps
271	976117 3253 525 17095 0.1 19.5 195 0 183040 5612160 811735859200
vector 272 ModbusTest1.switch1.ethernet.macHeaderInserter outgoingPacketLengths:vector ETV
attr interpolationmode none
attr recordingmode vector
attr source "packetLength(merge(packetPushedOut, packetPulledOut))"
attr title "outgoing packet lengths"
attr unit b
272	979370 28353 40 17507 0.00000693 19.50026141 1139 528 1800 702992 492622464
vector 273 ModbusTest1.switch1.ethernet.macHeaderInserter outgoingDataRate:vector ETV
attr interpolationmode linear
attr recordingmode vector
attr source "throughput(merge(packetPushedOut, packetPulledOut))"
attr title "outgoing data rate"
attr unit bps
273	1007723 3253 525 17095 0.1 19.5 195 0 223360 6856480 1211525862400
vector 278 ModbusTest1.switch1.ethernet.paddingInserter incomingPacketLengths:vector ETV
attr interpolationmode none
attr recordingmode vector
attr source "packetLength(merge(packetPushedIn, packetPulledIn))"
attr title "incoming packet lengths"
attr unit b
278	1010976 28353 40 17507 0.00000693 19.50026141 1139 528 1800 702992 492622464
vector 279 ModbusTest1.switch1.ethernet.paddingInserter incomingDataRate:vector ETV
attr interpolationmode linear
attr recordingmode vector
attr source "throughput(merge(packetPushedIn, packetPulledIn))"
attr title "incoming data rate"
attr unit bps
279	1039329 3253 525 17095 0.1 19.5 195 0 223360 6856480 1211525862400
vector 280 ModbusTest1.switch1.ethernet.paddingInserter outgoingPacketLengths:vector ETV
attr interpolationmode none
attr recordingmode vector
attr source "packetLength(merge(packetPushedOut, packetPulledOut))"
attr title "outgoing packet lengths"
attr unit b
280	1042582 28353 40 17507 0.00000693 19.50026141 1139 528 1800 702992 492622464
vector 281 ModbusTest1.switch1.ethernet.paddingInserter outgoingDataRate:vector ETV
attr interpolationmode linear
attr recordingmode vector
attr source "throughput(merge(packetPushedOut, packetPulledOut))"
attr title "outgoing data rate"
attr unit bps
281	1070935 3253 525 17095 0.1 19.5 195 0 223360 6856480 1211525862400
vector 286 ModbusTest1.switch1.ethernet.fcsInserter incomingPacketLengths:vector ETV
attr interpolationmode none
attr recordingmode vector
attr source "packetLength(merge(packetPushedIn, packetPulledIn))"
attr title "incoming packet lengths"
attr unit b
286	1074188 28353 40 17507 0.00000693 19.50026141 1139 528 1800 702992 492622464
vector 287 ModbusTest1.switch1.ethernet.fcsInserter incomingDataRate:vector ETV
attr interpolationmode linear
attr recordingmode vector
attr source "throughput(merge(packetPushedIn, packetPulledIn))"
attr title "incoming data rate"
attr unit bps
287	1102541 3253 525 17095 0.1 19.5 195 0 223360 6856480 1211525862400
vector 288 ModbusTest1.switch1.ethernet.fcsInserter outgoingPacketLengths:vector ETV
attr interpolationmode none
attr recordingmode vector
attr source "packetLength(merge(packetPushedOut, packetPulledOut))"
attr title "outgoing packet lengths"
attr unit b
288	1105794 28353 40 17507 0.00000693 19.50026141 1139 560 1832 739440 538780288
vector 289 ModbusTest1.switch1.ethernet.fcsInserter outgoingDataRate:vector ETV
attr interpolationmode linear
attr recordingmode vector
attr source "throughput(merge(packetPushedOut, packetPulledOut))"
attr title "outgoing data rate"
attr unit bps
289	1134147 3253 525 17095 0.1 19.5 195 0 234880 7212000 1340409164800
vector 294 ModbusTest1.switch1.ethernet.macHeaderChecker incomingPacketLengths:vector ETV
attr interpolationmode none
attr recordingmode vector
attr source "packetLength(merge(packetPushedIn, packetPulledIn))"
attr title "incoming packet lengths"
attr unit b
294	1137400 28353 40 17507 0.00000693 19.50026141 1139 528 1800 702992 492622464
vector 295 ModbusTest1.switch1.ethernet.macHeaderChecker incomingDataRate:vector ETV
attr interpolationmode linear
attr recordingmode vector
attr source "throughput(merge(packetPushedIn, packetPulledIn))"
attr title "incoming data rate"
attr unit bps
295	1165753 3253 525 17095 0.1 19.5 195 0 223360 6856480 1211525862400
vector 296 ModbusTest1.switch1.ethernet.macHeaderChecker outgoingPacketLengths:vector ETV
attr interpolationmode none
attr recordingmode vector
attr source "packetLength(merge(packetPushedOut, packetPulledOut))"
attr title "outgoing packet lengths"
attr unit b
296	1169006 28353 40 17507 0.00000693 19.50026141 1139 416 1688 575424 349439872
vector 297 ModbusTest1.switch1.ethernet.macHeaderChecker outgoingDataRate:vector ETV
attr interpolationmode linear
attr recordingmode vector
attr source "throughput(merge(packetPushedOut, packetPulledOut))"
attr title "outgoing data rate"
attr unit bps
297	1197359 3253 525 17095 0.1 19.5 195 0 183040 5612160 811735859200
vector 299 ModbusTest1.switch1.ethernet.macHeaderChecker droppedDataRate:vector ETV
attr interpolationmode linear
attr recordingmode vector
attr source throughput(packetDropped)
attr title "dropped data rate"
attr unit bps
299	1200612 3261 17524 17524 0.1 20 200 0 0 0 0
vector 306 ModbusTest1.switch1.ethernet.fcsChecker incomingPacketLengths:vector ETV
attr interpolationmode none
attr recordingmode vector
attr source "packetLength(merge(packetPushedIn, packetPulledIn))"
attr title "incoming packet lengths"
attr unit b
306	1203873 28353 40 17507 0.00000693 19.50026141 1139 560 1832 739440 538780288
vector 307 ModbusTest1.switch1.ethernet.fcsChecker incomingDataRate:vector ETV
attr interpolationmode linear
attr recordingmode vector
attr source "throughput(merge(packetPushedIn, packetPulledIn))"
attr title "incoming data rate"
attr unit bps
307	1232226 3253 525 17095 0.1 19.5 195 0 234880 7212000 1340409164800
vector 308 ModbusTest1.switch1.ethernet.fcsChecker outgoingPacketLengths:vector ETV
attr interpolationmode none
attr recordingmode vector
attr source "packetLength(merge(packetPushedOut, packetPulledOut))"
attr title "outgoing packet lengths"
attr unit b
308	1235479 28353 40 17507 0.00000693 19.50026141 1139 528 1800 702992 492622464
vector 309 ModbusTest1.switch1.ethernet.fcsChecker outgoingDataRate:vector ETV
attr interpolationmode linear
attr recordingmode vector
attr source "throughput(merge(packetPushedOut, packetPulledOut))"
attr title "outgoing data rate"
attr unit bps
309	1263832 3253 525 17095 0.1 19.5 195 0 223360 6856480 1211525862400
vector 311 ModbusTest1.switch1.ethernet.fcsChecker droppedDataRate:vector ETV
attr interpolationmode linear
attr recordingmode vector
attr source throughput(packetDropped)
attr title "dropped data rate"
attr unit bps
311	1267085 3261 17524 17524 0.1 20 200 0 0 0 0
vector 331 ModbusTest1.switch1.ieee8021q.qTagHeaderChecker droppedDataRate:vector ETV
attr interpolationmode linear
attr recordingmode vector
attr source throughput(packetDropped)
attr title "dropped data rate"
attr unit bps
331	1270346 3261 17524 17524 0.1 20 200 0 0 0 0
vector 351 ModbusTest1.switch1.ieee8021r.rTagHeaderChecker droppedDataRate:vector ETV
attr interpolationmode linear
attr recordingmode vector
attr source throughput(packetDropped)
attr title "dropped data rate"
attr unit bps
351	1273607 3261 17524 17524 0.1 20 200 0 0 0 0
vector 358 ModbusTest1.switch1.eth[0].macLayer.queue queueLength:vector ETV
attr autoWarmupFilter false
attr interpolationmode sample-hold
attr recordingmode vector
attr source "warmup(atomic(constant0(packetPushEnded) + count(packetPushStarted) - count(packetPulled) - count(packetRemoved) - count(packetDropped)))"
attr title "queue length"
attr unit pk
358	1276868 3800 0 17227 0 19.50007745 169 0 1 82 82
vector 359 ModbusTest1.switch1.eth[0].macLayer.queue queueBitLength:vector ETV
attr autoWarmupFilter false
attr interpolationmode sample-hold
attr recordingmode vector
attr source "warmup(atomic(constant0(packetPushEnded) + sum(packetLength(packetPushStarted)) - sum(packetLength(packetPulled)) - sum(packetLength(packetRemoved)) - sum(packetLength(packetDropped))))"
attr title "queue bit length"
attr unit b
359	1280668 4002 0 17227 0 19.50007745 169 0 1832 94576 141719936
vector 360 ModbusTest1.switch1.eth[0].macLayer.queue queueingTime:vector ETV
attr interpolationmode none
attr recordingmode vector
attr source queueingTime(packetPulled)
attr title "queueing times"
attr unit s
360	1284670 1875 86 17227 0.00002261 19.50007745 82 0 0 0 0
vector 361 ModbusTest1.switch1.eth[0].macLayer.queue incomingPacketLengths:vector ETV
attr interpolationmode none
attr recordingmode vector
attr source packetLength(packetPushStarted)
attr title "incoming packet lengths"
attr unit b
361	1286545 2077 84 17226 0.00002261 19.50007745 82 560 1832 94576 141719936
vector 362 ModbusTest1.switch1.eth[0].macLayer.queue incomingDataRate:vector ETV
attr interpolationmode linear
attr recordingmode vector
attr source throughput(packetPushStarted)
attr title "incoming datarate"
attr unit bps
362	1288622 3296 933 17524 0.1 20 200 0 36080 945760 23577920000
vector 363 ModbusTest1.switch1.eth[0].macLayer.queue outgoingPacketLengths:vector ETV
attr interpolationmode none
attr recordingmode vector
attr source packetLength(packetPulled)
attr title "outgoing packet lengths"
attr unit b
363	1291918 2077 86 17227 0.00002261 19.50007745 82 560 1832 94576 141719936
vector 364 ModbusTest1.switch1.eth[0].macLayer.queue outgoingDataRate:vector ETV
attr interpolationmode linear
attr recordingmode vector
attr source throughput(packetPulled)
attr title "outgoing datarate"
attr unit bps
364	1293995 3296 935 17524 0.1 20 200 0 36080 945760 23577920000
vector 369 ModbusTest1.switch1.eth[0].macLayer.server incomingPacketLengths:vector ETV
attr interpolationmode none
attr recordingmode vector
attr source packetLength(packetPulled)
attr title "incoming packet lengths"
attr unit b
369	1297291 2077 86 17227 0.00002261 19.50007745 82 560 1832 94576 141719936
vector 370 ModbusTest1.switch1.eth[0].macLayer.server incomingDataRate:vector ETV
attr interpolationmode linear
attr recordingmode vector
attr source throughput(packetPulled)
attr title "incoming datarate"
attr unit bps
370	1299368 3296 935 17524 0.1 20 200 0 36080 945760 23577920000
vector 371 ModbusTest1.switch1.eth[0].macLayer.server outgoingPacketLengths:vector ETV
attr interpolationmode none
attr recordingmode vector
attr source packetLength(packetPushed)
attr title "outgoing packet lengths"
attr unit b
371	1302664 2077 86 17227 0.00002261 19.50007745 82 560 1832 94576 141719936
vector 372 ModbusTest1.switch1.eth[0].macLayer.server outgoingDataRate:vector ETV
attr interpolationmode linear
attr recordingmode vector
attr source throughput(packetPushed)
attr title "outgoing datarate"
attr unit bps
372	1304741 3296 935 17524 0.1 20 200 0 36080 945760 23577920000
vector 373 ModbusTest1.switch1.eth[0].macLayer.outboundEmitter incomingPacketLengths:vector ETV
attr interpolationmode none
attr recordingmode vector
attr source "packetLength(merge(packetPushedIn, packetPulledIn))"
attr title "incoming packet lengths"
attr unit b
373	1308037 2077 86 17227 0.00002261 19.50007745 82 560 1832 94576 141719936
vector 374 ModbusTest1.switch1.eth[0].macLayer.outboundEmitter incomingDataRate:vector ETV
attr interpolationmode linear
attr recordingmode vector
attr source "throughput(merge(packetPushedIn, packetPulledIn))"
attr title "incoming data rate"
attr unit bps
374	1310114 3209 935 17187 0.1 19.5 195 0 36080 921840 23005753600
vector 375 ModbusTest1.switch1.eth[0].macLayer.outboundEmitter outgoingPacketLengths:vector ETV
attr interpolationmode none
attr recordingmode vector
attr source "packetLength(merge(packetPushedOut, packetPulledOut))"
attr title "outgoing packet lengths"
attr unit b
375	1313323 2077 86 17227 0.00002261 19.50007745 82 560 1832 94576 141719936
vector 376 ModbusTest1.switch1.eth[0].macLayer.outboundEmitter outgoingDataRate:vector ETV
attr interpolationmode linear
attr recordingmode vector
attr source "throughput(merge(packetPushedOut, packetPulledOut))"
attr title "outgoing data rate"
attr unit bps
376	1315400 3209 935 17187 0.1 19.5 195 0 36080 921840 23005753600
vector 381 ModbusTest1.switch1.eth[0].macLayer.fcsChecker incomingPacketLengths:vector ETV
attr interpolationmode none
attr recordingmode vector
attr source "packetLength(merge(packetPushedIn, packetPulledIn))"
attr title "incoming packet lengths"
attr unit b
381	1318609 2084 41 17272 0.00000693 19.50010275 84 560 888 49208 28984000
vector 382 ModbusTest1.switch1.eth[0].macLayer.fcsChecker incomingDataRate:vector ETV
attr interpolationmode linear
attr recordingmode vector
attr source "throughput(merge(packetPushedIn, packetPulledIn))"
attr title "incoming data rate"
attr unit bps
382	1320693 3210 899 17135 0.1 19.5 195 0 26080 480480 6555904000
vector 383 ModbusTest1.switch1.eth[0].macLayer.fcsChecker outgoingPacketLengths:vector ETV
attr interpolationmode none
attr recordingmode vector
attr source "packetLength(merge(packetPushedOut, packetPulledOut))"
attr title "outgoing packet lengths"
attr unit b
383	1323903 2084 41 17272 0.00000693 19.50010275 84 560 888 49208 28984000
vector 384 ModbusTest1.switch1.eth[0].macLayer.fcsChecker outgoingDataRate:vector ETV
attr interpolationmode linear
attr recordingmode vector
attr source "throughput(merge(packetPushedOut, packetPulledOut))"
attr title "outgoing data rate"
attr unit bps
384	1325987 3210 899 17135 0.1 19.5 195 0 26080 480480 6555904000
vector 386 ModbusTest1.switch1.eth[0].macLayer.fcsChecker droppedDataRate:vector ETV
attr interpolationmode linear
attr recordingmode vector
attr source throughput(packetDropped)
attr title "dropped data rate"
attr unit bps
386	1329197 3261 17524 17524 0.1 20 200 0 0 0 0
vector 393 ModbusTest1.switch1.eth[0].macLayer.inboundEmitter incomingPacketLengths:vector ETV
attr interpolationmode none
attr recordingmode vector
attr source "packetLength(merge(packetPushedIn, packetPulledIn))"
attr title "incoming packet lengths"
attr unit b
393	1332458 2084 41 17272 0.00000693 19.50010275 84 560 888 49208 28984000
vector 394 ModbusTest1.switch1.eth[0].macLayer.inboundEmitter incomingDataRate:vector ETV
attr interpolationmode linear
attr recordingmode vector
attr source "throughput(merge(packetPushedIn, packetPulledIn))"
attr title "incoming data rate"
attr unit bps
394	1334542 3210 899 17135 0.1 19.5 195 0 26080 480480 6555904000
vector 395 ModbusTest1.switch1.eth[0].macLayer.inboundEmitter outgoingPacketLengths:vector ETV
attr interpolationmode none
attr recordingmode vector
attr source "packetLength(merge(packetPushedOut, packetPulledOut))"
attr title "outgoing packet lengths"
attr unit b
395	1337752 2084 41 17272 0.00000693 19.50010275 84 560 888 49208 28984000
vector 396 ModbusTest1.switch1.eth[0].macLayer.inboundEmitter outgoingDataRate:vector ETV
attr interpolationmode linear
attr recordingmode vector
attr source "throughput(merge(packetPushedOut, packetPulledOut))"
attr title "outgoing data rate"
attr unit bps
396	1339836 3210 899 17135 0.1 19.5 195 0 26080 480480 6555904000
vector 401 ModbusTest1.switch1.eth[0].phyLayer.phyHeaderInserter incomingPacketLengths:vector ETV
attr interpolationmode none
attr recordingmode vector
attr source "packetLength(merge(packetPushedIn, packetPulledIn))"
attr title "incoming packet lengths"
attr unit b
401	1343046 2077 86 17227 0.00002261 19.50007745 82 560 1832 94576 141719936
vector 402 ModbusTest1.switch1.eth[0].phyLayer.phyHeaderInserter incomingDataRate:vector ETV
attr interpolationmode linear
attr recordingmode vector
attr source "throughput(merge(packetPushedIn, packetPulledIn))"
attr title "incoming data rate"
attr unit bps
402	1345123 3209 935 17187 0.1 19.5 195 0 36080 921840 23005753600
vector 403 ModbusTest1.switch1.eth[0].phyLayer.phyHeaderInserter outgoingPacketLengths:vector ETV
attr interpolationmode none
attr recordingmode vector
attr source "packetLength(merge(packetPushedOut, packetPulledOut))"
attr title "outgoing packet lengths"
attr unit b
403	1348332 2077 86 17227 0.00002261 19.50007745 82 624 1896 99824 154161536
vector 404 ModbusTest1.switch1.eth[0].phyLayer.phyHeaderInserter outgoingDataRate:vector ETV
attr interpolationmode linear
attr recordingmode vector
attr source "throughput(merge(packetPushedOut, packetPulledOut))"
attr title "outgoing data rate"
attr unit bps
404	1350409 3209 935 17187 0.1 19.5 195 0 38640 973040 25653920000
vector 409 ModbusTest1.switch1.eth[0].phyLayer.interFrameGapInserter interpacketGap:vector ETV
attr interpolationmode sample-hold
attr recordingmode vector
attr source "count(interpacketGapStarted) - count(interpacketGapEnded)"
attr title "interpacket gap state"
attr type int
409	1353618 3772 0 17269 0 19.50009737 166 0 1 82 82
vector 410 ModbusTest1.switch1.eth[0].phyLayer.outboundEmitter incomingPacketLengths:vector ETV
attr interpolationmode none
attr recordingmode vector
attr source "packetLength(merge(packetPushedIn, packetPulledIn))"
attr title "incoming packet lengths"
attr unit b
410	1357390 2077 86 17227 0.00002261 19.50007745 82 624 1896 99824 154161536
vector 411 ModbusTest1.switch1.eth[0].phyLayer.outboundEmitter incomingDataRate:vector ETV
attr interpolationmode linear
attr recordingmode vector
attr source "throughput(merge(packetPushedIn, packetPulledIn))"
attr title "incoming data rate"
attr unit bps
411	1359467 3209 935 17187 0.1 19.5 195 0 38640 973040 25653920000
vector 412 ModbusTest1.switch1.eth[0].phyLayer.outboundEmitter outgoingPacketLengths:vector ETV
attr interpolationmode none
attr recordingmode vector
attr source "packetLength(merge(packetPushedOut, packetPulledOut))"
attr title "outgoing packet lengths"
attr unit b
412	1362676 2077 86 17227 0.00002261 19.50007745 82 624 1896 99824 154161536
vector 413 ModbusTest1.switch1.eth[0].phyLayer.outboundEmitter outgoingDataRate:vector ETV
attr interpolationmode linear
attr recordingmode vector
attr source "throughput(merge(packetPushedOut, packetPulledOut))"
attr title "outgoing data rate"
attr unit bps
413	1364753 3209 935 17187 0.1 19.5 195 0 38640 973040 25653920000
vector 418 ModbusTest1.switch1.eth[0].phyLayer.transmitter transmitting:vector ETV
attr interpolationmode sample-hold
attr recordingmode vector
attr source "count(transmissionStarted) - count(transmissionEnded)"
attr title "transmitting state"
attr type int
418	1367962 3771 0 17257 0 19.50009641 166 0 1 82 82
vector 419 ModbusTest1.switch1.eth[0].phyLayer.transmitter throughput:vector ETV
attr interpolationmode linear
attr recordingmode vector
attr source throughput(transmissionEnded)
attr title throughput
attr unit bps
419	1371733 3296 945 17524 0.1 20 200 0 38640 998240 26288960000
vector 420 ModbusTest1.switch1.eth[0].phyLayer.transmitter utilization:vector ETV
attr interpolationmode linear
attr recordingmode vector
attr source "100 * utilization(count(transmissionStarted) - count(transmissionEnded))"
attr title utilization
attr unit %
420	1375029 3252 935 17187 0.1 19.5 195 0 0.03864 0.97304 0.02565392
vector 421 ModbusTest1.switch1.eth[0].phyLayer.transmitter transmissionTime:vector ETV
attr interpolationmode none
attr recordingmode vector
attr source packetDuration(transmissionEnded)
attr title "transmission time"
attr unit s
421	1378281 2486 102 17257 0.00002949 19.50009641 82 6.24e-06 1.896e-05 0.00099824 1.54161536e-08
vector 423 ModbusTest1.switch1.eth[0].phyLayer.phyHeaderChecker incomingPacketLengths:vector ETV
attr interpolationmode none
attr recordingmode vector
attr source "packetLength(merge(packetPushedIn, packetPulledIn))"
attr title "incoming packet lengths"
attr unit b
423	1380767 2084 41 17272 0.00000693 19.50010275 84 624 952 54584 35626688
vector 424 ModbusTest1.switch1.eth[0].phyLayer.phyHeaderChecker incomingDataRate:vector ETV
attr interpolationmode linear
attr recordingmode vector
attr source "throughput(merge(packetPushedIn, packetPulledIn))"
attr title "incoming data rate"
attr unit bps
424	1382851 3210 899 17135 0.1 19.5 195 0 28640 532960 8052992000
vector 425 ModbusTest1.switch1.eth[0].phyLayer.phyHeaderChecker outgoingPacketLengths:vector ETV
attr interpolationmode none
attr recordingmode vector
attr source "packetLength(merge(packetPushedOut, packetPulledOut))"
attr title "outgoing packet lengths"
attr unit b
425	1386061 2084 41 17272 0.00000693 19.50010275 84 560 888 49208 28984000
vector 426 ModbusTest1.switch1.eth[0].phyLayer.phyHeaderChecker outgoingDataRate:vector ETV
attr interpolationmode linear
attr recordingmode vector
attr source "throughput(merge(packetPushedOut, packetPulledOut))"
attr title "outgoing data rate"
attr unit bps
426	1388145 3210 899 17135 0.1 19.5 195 0 26080 480480 6555904000
vector 428 ModbusTest1.switch1.eth[0].phyLayer.phyHeaderChecker droppedDataRate:vector ETV
attr interpolationmode linear
attr recordingmode vector
attr source throughput(packetDropped)
attr title "dropped data rate"
attr unit bps
428	1391355 3261 17524 17524 0.1 20 200 0 0 0 0
vector 435 ModbusTest1.switch1.eth[0].phyLayer.inboundEmitter incomingPacketLengths:vector ETV
attr interpolationmode none
attr recordingmode vector
attr source "packetLength(merge(packetPushedIn, packetPulledIn))"
attr title "incoming packet lengths"
attr unit b
435	1394616 2084 41 17272 0.00000693 19.50010275 84 624 952 54584 35626688
vector 436 ModbusTest1.switch1.eth[0].phyLayer.inboundEmitter incomingDataRate:vector ETV
attr interpolationmode linear
attr recordingmode vector
attr source "throughput(merge(packetPushedIn, packetPulledIn))"
attr title "incoming data rate"
attr unit bps
436	1396700 3210 899 17135 0.1 19.5 195 0 28640 532960 8052992000
vector 437 ModbusTest1.switch1.eth[0].phyLayer.inboundEmitter outgoingPacketLengths:vector ETV
attr interpolationmode none
attr recordingmode vector
attr source "packetLength(merge(packetPushedOut, packetPulledOut))"
attr title "outgoing packet lengths"
attr unit b
437	1399910 2084 41 17272 0.00000693 19.50010275 84 624 952 54584 35626688
vector 438 ModbusTest1.switch1.eth[0].phyLayer.inboundEmitter outgoingDataRate:vector ETV
attr interpolationmode linear
attr recordingmode vector
attr source "throughput(merge(packetPushedOut, packetPulledOut))"
attr title "outgoing data rate"
attr unit bps
438	1401994 3210 899 17135 0.1 19.5 195 0 28640 532960 8052992000
vector 443 ModbusTest1.switch1.eth[0].phyLayer.receiver throughput:vector ETV
attr interpolationmode linear
attr recordingmode vector
attr source throughput(receptionEnded)
attr title throughput
attr unit bps
443	1405204 3297 899 17524 0.1 20 200 0 28640 545840 8218886400
vector 444 ModbusTest1.switch1.eth[0].phyLayer.receiver receptionTime:vector ETV
attr interpolationmode none
attr recordingmode vector
attr source packetDuration(receptionEnded)
attr title "reception time"
attr unit s
444	1408501 2504 41 17272 0.00000693 19.50010275 84 6.24e-06 9.52e-06 0.00054584 3.5626688e-09
vector 448 ModbusTest1.switch1.eth[1].macLayer.queue queueLength:vector ETV
attr autoWarmupFilter false
attr interpolationmode sample-hold
attr recordingmode vector
attr source "warmup(atomic(constant0(packetPushEnded) + count(packetPushStarted) - count(packetPulled) - count(packetRemoved) - count(packetDropped)))"
attr title "queue length"
attr unit pk
448	1411005 50 0 0 0 0 5 0 0 0 0
vector 449 ModbusTest1.switch1.eth[1].macLayer.queue queueBitLength:vector ETV
attr autoWarmupFilter false
attr interpolationmode sample-hold
attr recordingmode vector
attr source "warmup(atomic(constant0(packetPushEnded) + sum(packetLength(packetPushStarted)) - sum(packetLength(packetPulled)) - sum(packetLength(packetRemoved)) - sum(packetLength(packetDropped))))"
attr title "queue bit length"
attr unit b
449	1411055 50 0 0 0 0 5 0 0 0 0
vector 452 ModbusTest1.switch1.eth[1].macLayer.queue incomingDataRate:vector ETV
attr interpolationmode linear
attr recordingmode vector
attr source throughput(packetPushStarted)
attr title "incoming datarate"
attr unit bps
452	1411105 3261 17524 17524 0.1 20 200 0 0 0 0
vector 454 ModbusTest1.switch1.eth[1].macLayer.queue outgoingDataRate:vector ETV
attr interpolationmode linear
attr recordingmode vector
attr source throughput(packetPulled)
attr title "outgoing datarate"
attr unit bps
454	1414366 3261 17524 17524 0.1 20 200 0 0 0 0
vector 460 ModbusTest1.switch1.eth[1].macLayer.server incomingDataRate:vector ETV
attr interpolationmode linear
attr recordingmode vector
attr source throughput(packetPulled)
attr title "incoming datarate"
attr unit bps
460	1417627 3261 17524 17524 0.1 20 200 0 0 0 0
vector 462 ModbusTest1.switch1.eth[1].macLayer.server outgoingDataRate:vector ETV
attr interpolationmode linear
attr recordingmode vector
attr source throughput(packetPushed)
attr title "outgoing datarate"
attr unit bps
462	1420888 3261 17524 17524 0.1 20 200 0 0 0 0
vector 476 ModbusTest1.switch1.eth[1].macLayer.fcsChecker droppedDataRate:vector ETV
attr interpolationmode linear
attr recordingmode vector
attr source throughput(packetDropped)
attr title "dropped data rate"
attr unit bps
476	1424149 3261 17524 17524 0.1 20 200 0 0 0 0
vector 499 ModbusTest1.switch1.eth[1].phyLayer.interFrameGapInserter interpacketGap:vector ETV
attr interpolationmode sample-hold
attr recordingmode vector
attr source "count(interpacketGapStarted) - count(interpacketGapEnded)"
attr title "interpacket gap state"
attr type int
499	1427410 20 0 0 0 0 2 0 0 0 0
vector 508 ModbusTest1.switch1.eth[1].phyLayer.transmitter transmitting:vector ETV
attr interpolationmode sample-hold
attr recordingmode vector
attr source "count(transmissionStarted) - count(transmissionEnded)"
attr title "transmitting state"
attr type int
508	1427430 20 0 0 0 0 2 0 0 0 0
vector 509 ModbusTest1.switch1.eth[1].phyLayer.transmitter throughput:vector ETV
attr interpolationmode linear
attr recordingmode vector
attr source throughput(transmissionEnded)
attr title throughput
attr unit bps
509	1427450 3261 17524 17524 0.1 20 200 0 0 0 0
vector 518 ModbusTest1.switch1.eth[1].phyLayer.phyHeaderChecker droppedDataRate:vector ETV
attr interpolationmode linear
attr recordingmode vector
attr source throughput(packetDropped)
attr title "dropped data rate"
attr unit bps
518	1430711 3261 17524 17524 0.1 20 200 0 0 0 0
vector 533 ModbusTest1.switch1.eth[1].phyLayer.receiver throughput:vector ETV
attr interpolationmode linear
attr recordingmode vector
attr source throughput(receptionEnded)
attr title throughput
attr unit bps
533	1433972 3261 17524 17524 0.1 20 200 0 0 0 0
vector 538 ModbusTest1.switch1.eth[2].macLayer.queue queueLength:vector ETV
attr autoWarmupFilter false
attr interpolationmode sample-hold
attr recordingmode vector
attr source "warmup(atomic(constant0(packetPushEnded) + count(packetPushStarted) - count(packetPulled) - count(packetRemoved) - count(packetDropped)))"
attr title "queue length"
attr unit pk
538	1437233 26108 0 17493 0 19.50024803 1145 0 1 570 570
vector 539 ModbusTest1.switch1.eth[2].macLayer.queue queueBitLength:vector ETV
attr autoWarmupFilter false
attr interpolationmode sample-hold
attr recordingmode vector
attr source "warmup(atomic(constant0(packetPushEnded) + sum(packetLength(packetPushStarted)) - sum(packetLength(packetPulled)) - sum(packetLength(packetRemoved)) - sum(packetLength(packetDropped))))"
attr title "queue bit length"
attr unit b
539	1463341 27248 0 17493 0 19.50024803 1145 0 888 348632 215712960
vector 540 ModbusTest1.switch1.eth[2].macLayer.queue queueingTime:vector ETV
attr interpolationmode none
attr recordingmode vector
attr source queueingTime(packetPulled)
attr title "queueing times"
attr unit s
540	1490589 13309 43 17493 0.00000693 19.50024803 570 0 2.78e-06 9.386e-05 2.233852e-10
vector 541 ModbusTest1.switch1.eth[2].macLayer.queue incomingPacketLengths:vector ETV
attr interpolationmode none
attr recordingmode vector
attr source packetLength(packetPushStarted)
attr title "incoming packet lengths"
attr unit b
541	1503898 14168 41 17492 0.00000693 19.50024803 570 560 888 348632 215712960
vector 542 ModbusTest1.switch1.eth[2].macLayer.queue incomingDataRate:vector ETV
attr interpolationmode linear
attr recordingmode vector
attr source throughput(packetPushStarted)
attr title "incoming datarate"
attr unit bps
542	1518066 3303 544 17524 0.1 20 200 0 112160 3486320 305555360000
vector 543 ModbusTest1.switch1.eth[2].macLayer.queue outgoingPacketLengths:vector ETV
attr interpolationmode none
attr recordingmode vector
attr source packetLength(packetPulled)
attr title "outgoing packet lengths"
attr unit b
543	1521369 14170 43 17493 0.00000693 19.50024803 570 560 888 348632 215712960
vector 544 ModbusTest1.switch1.eth[2].macLayer.queue outgoingDataRate:vector ETV
attr interpolationmode linear
attr recordingmode vector
attr source throughput(packetPulled)
attr title "outgoing datarate"
attr unit bps
544	1535539 3303 545 17524 0.1 20 200 0 112160 3486320 305555360000
vector 549 ModbusTest1.switch1.eth[2].macLayer.server incomingPacketLengths:vector ETV
attr interpolationmode none
attr recordingmode vector
attr source packetLength(packetPulled)
attr title "incoming packet lengths"
attr unit b
549	1538842 14170 43 17493 0.00000693 19.50024803 570 560 888 348632 215712960
vector 550 ModbusTest1.switch1.eth[2].macLayer.server incomingDataRate:vector ETV
attr interpolationmode linear
attr recordingmode vector
attr source throughput(packetPulled)
attr title "incoming datarate"
attr unit bps
550	1553012 3303 545 17524 0.1 20 200 0 112160 3486320 305555360000
vector 551 ModbusTest1.switch1.eth[2].macLayer.server outgoingPacketLengths:vector ETV
attr interpolationmode none
attr recordingmode vector
attr source packetLength(packetPushed)
attr title "outgoing packet lengths"
attr unit b
551	1556315 14170 43 17493 0.00000693 19.50024803 570 560 888 348632 215712960
vector 552 ModbusTest1.switch1.eth[2].macLayer.server outgoingDataRate:vector ETV
attr interpolationmode linear
attr recordingmode vector
attr source throughput(packetPushed)
attr title "outgoing datarate"
attr unit bps
552	1570485 3303 545 17524 0.1 20 200 0 112160 3486320 305555360000
vector 553 ModbusTest1.switch1.eth[2].macLayer.outboundEmitter incomingPacketLengths:vector ETV
attr interpolationmode none
attr recordingmode vector
attr source "packetLength(merge(packetPushedIn, packetPulledIn))"
attr title "incoming packet lengths"
attr unit b
553	1573788 14170 43 17493 0.00000693 19.50024803 570 560 888 348632 215712960
vector 554 ModbusTest1.switch1.eth[2].macLayer.outboundEmitter incomingDataRate:vector ETV
attr interpolationmode linear
attr recordingmode vector
attr source "throughput(merge(packetPushedIn, packetPulledIn))"
attr title "incoming data rate"
attr unit bps
554	1587958 3216 545 17115 0.1 19.5 195 0 112160 3400800 298241689600
vector 555 ModbusTest1.switch1.eth[2].macLayer.outboundEmitter outgoingPacketLengths:vector ETV
attr interpolationmode none
attr recordingmode vector
attr source "packetLength(merge(packetPushedOut, packetPulledOut))"
attr title "outgoing packet lengths"
attr unit b
555	1591174 14170 43 17493 0.00000693 19.50024803 570 560 888 348632 215712960
vector 556 ModbusTest1.switch1.eth[2].macLayer.outboundEmitter outgoingDataRate:vector ETV
attr interpolationmode linear
attr recordingmode vector
attr source "throughput(merge(packetPushedOut, packetPulledOut))"
attr title "outgoing data rate"
attr unit bps
556	1605344 3216 545 17115 0.1 19.5 195 0 112160 3400800 298241689600
vector 561 ModbusTest1.switch1.eth[2].macLayer.fcsChecker incomingPacketLengths:vector ETV
attr interpolationmode none
attr recordingmode vector
attr source "packetLength(merge(packetPushedIn, packetPulledIn))"
attr title "incoming packet lengths"
attr unit b
561	1608560 14185 40 17507 0.00000693 19.50026141 569 560 1832 390808 323067328
vector 562 ModbusTest1.switch1.eth[2].macLayer.fcsChecker incomingDataRate:vector ETV
attr interpolationmode linear
attr recordingmode vector
attr source "throughput(merge(packetPushedIn, packetPulledIn))"
attr title "incoming data rate"
attr unit bps
562	1622745 3217 525 17095 0.1 19.5 195 0 122720 3811200 374284902400
vector 563 ModbusTest1.switch1.eth[2].macLayer.fcsChecker outgoingPacketLengths:vector ETV
attr interpolationmode none
attr recordingmode vector
attr source "packetLength(merge(packetPushedOut, packetPulledOut))"
attr title "outgoing packet lengths"
attr unit b
563	1625962 14185 40 17507 0.00000693 19.50026141 569 560 1832 390808 323067328
vector 564 ModbusTest1.switch1.eth[2].macLayer.fcsChecker outgoingDataRate:vector ETV
attr interpolationmode linear
attr recordingmode vector
attr source "throughput(merge(packetPushedOut, packetPulledOut))"
attr title "outgoing data rate"
attr unit bps
564	1640147 3217 525 17095 0.1 19.5 195 0 122720 3811200 374284902400
vector 566 ModbusTest1.switch1.eth[2].macLayer.fcsChecker droppedDataRate:vector ETV
attr interpolationmode linear
attr recordingmode vector
attr source throughput(packetDropped)
attr title "dropped data rate"
attr unit bps
566	1643364 3261 17524 17524 0.1 20 200 0 0 0 0
vector 573 ModbusTest1.switch1.eth[2].macLayer.inboundEmitter incomingPacketLengths:vector ETV
attr interpolationmode none
attr recordingmode vector
attr source "packetLength(merge(packetPushedIn, packetPulledIn))"
attr title "incoming packet lengths"
attr unit b
573	1646625 14185 40 17507 0.00000693 19.50026141 569 560 1832 390808 323067328
vector 574 ModbusTest1.switch1.eth[2].macLayer.inboundEmitter incomingDataRate:vector ETV
attr interpolationmode linear
attr recordingmode vector
attr source "throughput(merge(packetPushedIn, packetPulledIn))"
attr title "incoming data rate"
attr unit bps
574	1660810 3217 525 17095 0.1 19.5 195 0 122720 3811200 374284902400
vector 575 ModbusTest1.switch1.eth[2].macLayer.inboundEmitter outgoingPacketLengths:vector ETV
attr interpolationmode none
attr recordingmode vector
attr source "packetLength(merge(packetPushedOut, packetPulledOut))"
attr title "outgoing packet lengths"
attr unit b
575	1664027 14185 40 17507 0.00000693 19.50026141 569 560 1832 390808 323067328
vector 576 ModbusTest1.switch1.eth[2].macLayer.inboundEmitter outgoingDataRate:vector ETV
attr interpolationmode linear
attr recordingmode vector
attr source "throughput(merge(packetPushedOut, packetPulledOut))"
attr title "outgoing data rate"
attr unit bps
576	1678212 3217 525 17095 0.1 19.5 195 0 122720 3811200 374284902400
vector 581 ModbusTest1.switch1.eth[2].phyLayer.phyHeaderInserter incomingPacketLengths:vector ETV
attr interpolationmode none
attr recordingmode vector
attr source "packetLength(merge(packetPushedIn, packetPulledIn))"
attr title "incoming packet lengths"
attr unit b
581	1681429 14170 43 17493 0.00000693 19.50024803 570 560 888 348632 215712960
vector 582 ModbusTest1.switch1.eth[2].phyLayer.phyHeaderInserter incomingDataRate:vector ETV
attr interpolationmode linear
attr recordingmode vector
attr source "throughput(merge(packetPushedIn, packetPulledIn))"
attr title "incoming data rate"
attr unit bps
582	1695599 3216 545 17115 0.1 19.5 195 0 112160 3400800 298241689600
vector 583 ModbusTest1.switch1.eth[2].phyLayer.phyHeaderInserter outgoingPacketLengths:vector ETV
attr interpolationmode none
attr recordingmode vector
attr source "packetLength(merge(packetPushedOut, packetPulledOut))"
attr title "outgoing packet lengths"
attr unit b
583	1698815 14170 43 17493 0.00000693 19.50024803 570 624 952 385112 262672576
vector 584 ModbusTest1.switch1.eth[2].phyLayer.phyHeaderInserter outgoingDataRate:vector ETV
attr interpolationmode linear
attr recordingmode vector
attr source "throughput(merge(packetPushedOut, packetPulledOut))"
attr title "outgoing data rate"
attr unit bps
584	1712985 3218 545 17115 0.1 19.5 195 0 123680 3756640 363902412800
vector 589 ModbusTest1.switch1.eth[2].phyLayer.interFrameGapInserter interpacketGap:vector ETV
attr interpolationmode sample-hold
attr recordingmode vector
attr source "count(interpacketGapStarted) - count(interpacketGapEnded)"
attr title "interpacket gap state"
attr type int
589	1716203 26084 0 17504 0 19.50025603 1142 0 1 570 570
vector 590 ModbusTest1.switch1.eth[2].phyLayer.outboundEmitter incomingPacketLengths:vector ETV
attr interpolationmode none
attr recordingmode vector
attr source "packetLength(merge(packetPushedIn, packetPulledIn))"
attr title "incoming packet lengths"
attr unit b
590	1742287 14170 43 17493 0.00000693 19.50024803 570 624 952 385112 262672576
vector 591 ModbusTest1.switch1.eth[2].phyLayer.outboundEmitter incomingDataRate:vector ETV
attr interpolationmode linear
attr recordingmode vector
attr source "throughput(merge(packetPushedIn, packetPulledIn))"
attr title "incoming data rate"
attr unit bps
591	1756457 3218 545 17115 0.1 19.5 195 0 123680 3756640 363902412800
vector 592 ModbusTest1.switch1.eth[2].phyLayer.outboundEmitter outgoingPacketLengths:vector ETV
attr interpolationmode none
attr recordingmode vector
attr source "packetLength(merge(packetPushedOut, packetPulledOut))"
attr title "outgoing packet lengths"
attr unit b
592	1759675 14170 43 17493 0.00000693 19.50024803 570 624 952 385112 262672576
vector 593 ModbusTest1.switch1.eth[2].phyLayer.outboundEmitter outgoingDataRate:vector ETV
attr interpolationmode linear
attr recordingmode vector
attr source "throughput(merge(packetPushedOut, packetPulledOut))"
attr title "outgoing data rate"
attr unit bps
593	1773845 3218 545 17115 0.1 19.5 195 0 123680 3756640 363902412800
vector 598 ModbusTest1.switch1.eth[2].phyLayer.transmitter transmitting:vector ETV
attr interpolationmode sample-hold
attr recordingmode vector
attr source "count(transmissionStarted) - count(transmissionEnded)"
attr title "transmitting state"
attr type int
598	1777063 26081 0 17496 0 19.50025507 1142 0 1 570 570
vector 599 ModbusTest1.switch1.eth[2].phyLayer.transmitter throughput:vector ETV
attr interpolationmode linear
attr recordingmode vector
attr source throughput(transmissionEnded)
attr title throughput
attr unit bps
599	1803144 3305 548 17524 0.1 20 200 0 123680 3851120 372828883200
vector 600 ModbusTest1.switch1.eth[2].phyLayer.transmitter utilization:vector ETV
attr interpolationmode linear
attr recordingmode vector
attr source "100 * utilization(count(transmissionStarted) - count(transmissionEnded))"
attr title utilization
attr unit %
600	1806449 3290 545 17115 0.1 19.5 195 0 0.12368 3.75664 0.3639024128
vector 601 ModbusTest1.switch1.eth[2].phyLayer.transmitter transmissionTime:vector ETV
attr interpolationmode none
attr recordingmode vector
attr source packetDuration(transmissionEnded)
attr title "transmission time"
attr unit s
601	1809739 17019 49 17496 0.00001381 19.50025507 570 6.24e-06 9.52e-06 0.00385112 2.62672576e-08
vector 603 ModbusTest1.switch1.eth[2].phyLayer.phyHeaderChecker incomingPacketLengths:vector ETV
attr interpolationmode none
attr recordingmode vector
attr source "packetLength(merge(packetPushedIn, packetPulledIn))"
attr title "incoming packet lengths"
attr unit b
603	1826758 14185 40 17507 0.00000693 19.50026141 569 624 1896 427224 375421376
vector 604 ModbusTest1.switch1.eth[2].phyLayer.phyHeaderChecker incomingDataRate:vector ETV
attr interpolationmode linear
attr recordingmode vector
attr source "throughput(merge(packetPushedIn, packetPulledIn))"
attr title "incoming data rate"
attr unit bps
604	1840943 3252 525 17095 0.1 19.5 195 0 134240 4166400 447275724800
vector 605 ModbusTest1.switch1.eth[2].phyLayer.phyHeaderChecker outgoingPacketLengths:vector ETV
attr interpolationmode none
attr recordingmode vector
attr source "packetLength(merge(packetPushedOut, packetPulledOut))"
attr title "outgoing packet lengths"
attr unit b
605	1844195 14185 40 17507 0.00000693 19.50026141 569 560 1832 390808 323067328
vector 606 ModbusTest1.switch1.eth[2].phyLayer.phyHeaderChecker outgoingDataRate:vector ETV
attr interpolationmode linear
attr recordingmode vector
attr source "throughput(merge(packetPushedOut, packetPulledOut))"
attr title "outgoing data rate"
attr unit bps
606	1858380 3217 525 17095 0.1 19.5 195 0 122720 3811200 374284902400
vector 608 ModbusTest1.switch1.eth[2].phyLayer.phyHeaderChecker droppedDataRate:vector ETV
attr interpolationmode linear
attr recordingmode vector
attr source throughput(packetDropped)
attr title "dropped data rate"
attr unit bps
608	1861597 3261 17524 17524 0.1 20 200 0 0 0 0
vector 615 ModbusTest1.switch1.eth[2].phyLayer.inboundEmitter incomingPacketLengths:vector ETV
attr interpolationmode none
attr recordingmode vector
attr source "packetLength(merge(packetPushedIn, packetPulledIn))"
attr title "incoming packet lengths"
attr unit b
615	1864858 14185 40 17507 0.00000693 19.50026141 569 624 1896 427224 375421376
vector 616 ModbusTest1.switch1.eth[2].phyLayer.inboundEmitter incomingDataRate:vector ETV
attr interpolationmode linear
attr recordingmode vector
attr source "throughput(merge(packetPushedIn, packetPulledIn))"
attr title "incoming data rate"
attr unit bps
616	1879043 3252 525 17095 0.1 19.5 195 0 134240 4166400 447275724800
vector 617 ModbusTest1.switch1.eth[2].phyLayer.inboundEmitter outgoingPacketLengths:vector ETV
attr interpolationmode none
attr recordingmode vector
attr source "packetLength(merge(packetPushedOut, packetPulledOut))"
attr title "outgoing packet lengths"
attr unit b
617	1882295 14185 40 17507 0.00000693 19.50026141 569 624 1896 427224 375421376
vector 618 ModbusTest1.switch1.eth[2].phyLayer.inboundEmitter outgoingDataRate:vector ETV
attr interpolationmode linear
attr recordingmode vector
attr source "throughput(merge(packetPushedOut, packetPulledOut))"
attr title "outgoing data rate"
attr unit bps
618	1896480 3252 525 17095 0.1 19.5 195 0 134240 4166400 447275724800
vector 623 ModbusTest1.switch1.eth[2].phyLayer.receiver throughput:vector ETV
attr interpolationmode linear
attr recordingmode vector
attr source throughput(receptionEnded)
attr title throughput
attr unit bps
623	1899732 3340 525 17524 0.1 20 200 0 134240 4272240 458477830400
vector 624 ModbusTest1.switch1.eth[2].phyLayer.receiver receptionTime:vector ETV
attr interpolationmode none
attr recordingmode vector
attr source packetDuration(receptionEnded)
attr title "reception time"
attr unit s
624	1903072 16787 40 17507 0.00000693 19.50026141 569 6.24e-06 1.896e-05 0.00427224 3.75421376e-08
vector 628 ModbusTest1.switch1.eth[3].macLayer.queue queueLength:vector ETV
attr autoWarmupFilter false
attr interpolationmode sample-hold
attr recordingmode vector
attr source "warmup(atomic(constant0(packetPushEnded) + count(packetPushStarted) - count(packetPulled) - count(packetRemoved) - count(packetDropped)))"
attr title "queue length"
attr unit pk
628	1919859 14908 0 17391 0 19.50017525 655 0 1 325 325
vector 629 ModbusTest1.switch1.eth[3].macLayer.queue queueBitLength:vector ETV
attr autoWarmupFilter false
attr interpolationmode sample-hold
attr recordingmode vector
attr source "warmup(atomic(constant0(packetPushEnded) + sum(packetLength(packetPushStarted)) - sum(packetLength(packetPulled)) - sum(packetLength(packetRemoved)) - sum(packetLength(packetDropped))))"
attr title "queue bit length"
attr unit b
629	1934767 15558 0 17391 0 19.50017525 655 0 808 197768 121129536
vector 630 ModbusTest1.switch1.eth[3].macLayer.queue queueingTime:vector ETV
attr interpolationmode none
attr recordingmode vector
attr source queueingTime(packetPulled)
attr title "queueing times"
attr unit s
630	1950325 7429 42 17391 0.00000693 19.50017525 325 0 0 0 0
vector 631 ModbusTest1.switch1.eth[3].macLayer.queue incomingPacketLengths:vector ETV
attr interpolationmode none
attr recordingmode vector
attr source packetLength(packetPushStarted)
attr title "incoming packet lengths"
attr unit b
631	1957754 8079 40 17390 0.00000693 19.50017525 325 560 808 197768 121129536
vector 632 ModbusTest1.switch1.eth[3].macLayer.queue incomingDataRate:vector ETV
attr interpolationmode linear
attr recordingmode vector
attr source throughput(packetPushStarted)
attr title "incoming datarate"
attr unit bps
632	1965833 3301 525 17524 0.1 20 200 0 62320 1977680 98128672000
vector 633 ModbusTest1.switch1.eth[3].macLayer.queue outgoingPacketLengths:vector ETV
attr interpolationmode none
attr recordingmode vector
attr source packetLength(packetPulled)
attr title "outgoing packet lengths"
attr unit b
633	1969134 8079 42 17391 0.00000693 19.50017525 325 560 808 197768 121129536
vector 634 ModbusTest1.switch1.eth[3].macLayer.queue outgoingDataRate:vector ETV
attr interpolationmode linear
attr recordingmode vector
attr source throughput(packetPulled)
attr title "outgoing datarate"
attr unit bps
634	1977213 3301 526 17524 0.1 20 200 0 62320 1977680 98128672000
vector 639 ModbusTest1.switch1.eth[3].macLayer.server incomingPacketLengths:vector ETV
attr interpolationmode none
attr recordingmode vector
attr source packetLength(packetPulled)
attr title "incoming packet lengths"
attr unit b
639	1980514 8079 42 17391 0.00000693 19.50017525 325 560 808 197768 121129536
vector 640 ModbusTest1.switch1.eth[3].macLayer.server incomingDataRate:vector ETV
attr interpolationmode linear
attr recordingmode vector
attr source throughput(packetPulled)
attr title "incoming datarate"
attr unit bps
640	1988593 3301 526 17524 0.1 20 200 0 62320 1977680 98128672000
vector 641 ModbusTest1.switch1.eth[3].macLayer.server outgoingPacketLengths:vector ETV
attr interpolationmode none
attr recordingmode vector
attr source packetLength(packetPushed)
attr title "outgoing packet lengths"
attr unit b
641	1991894 8079 42 17391 0.00000693 19.50017525 325 560 808 197768 121129536
[...]
vector 2286 ModbusTest1.operatorStation.tcp.conn-8 rcvWnd:vector ETV
attr interpolationmode sample-hold
attr recordingmode vector
2286	4247674 132 27 5030 0 5.00032022 6 65535 65535 393210 25769017350
vector 2287 ModbusTest1.operatorStation.tcp.conn-8 rcvAdv:vector ETV
attr interpolationmode sample-hold
attr recordingmode vector
2287	4247806 158 27 5030 0 5.00032022 7 65535 65563 458817 30073291959
vector 2288 ModbusTest1.operatorStation.tcp.conn-8 sndNxt:vector ETV
attr interpolationmode sample-hold
attr recordingmode vector
2288	4247964 14 3515 3515 4 4 1 1 1 1 1
vector 2289 ModbusTest1.operatorStation.tcp.conn-8 sndAck:vector ETV
attr interpolationmode sample-hold
attr recordingmode vector
2289	4247978 111 27 5030 0 5.00032022 6 0 28 68 1328
vector 2290 ModbusTest1.operatorStation.tcp.conn-8 rcvSeq:vector ETV
attr interpolationmode sample-hold
attr recordingmode vector
2290	4248089 114 107 5030 0.00002954 5.00032022 5 3 16 43 553
vector 2291 ModbusTest1.operatorStation.tcp.conn-8 rcvAck:vector ETV
attr interpolationmode sample-hold
attr recordingmode vector
2291	4248203 116 107 5030 0.00002954 5.00032022 5 1 66 217 12241
vector 2292 ModbusTest1.operatorStation.tcp.conn-8 unacked:vector ETV
attr interpolationmode sample-hold
attr recordingmode vector
2292	4248319 74 3515 4568 4 5.000029 4 0 41 65 2257
vector 2293 ModbusTest1.operatorStation.tcp.conn-8 dupAcks:vector ETV
attr interpolationmode sample-hold
attr recordingmode vector
2293	4248393 90 3588 5030 4.00003172 5.00032022 4 0 0 0 0
vector 2300 ModbusTest1.operatorStation.tcp.conn-8 tcpRcvQueueBytes:vector ETV
attr interpolationmode sample-hold
attr recordingmode vector
2300	4248483 154 27 5030 0 5.00032022 8 0 0 0 0
vector 2302 ModbusTest1.operatorStation.tcp.conn-8 tcpRcvPayloadBytes:vector ETV
attr interpolationmode sample-hold
attr recordingmode vector
2302	4248637 114 107 5030 0.00002954 5.00032022 5 0 12 24 288
vector 2303 ModbusTest1.operatorStation.tcp.conn-8 cwnd:vector ETV
attr interpolationmode sample-hold
attr recordingmode vector
2303	4248751 50 3588 4568 4.00003172 5.000029 2 5832 7284 13116 87068880
vector 2304 ModbusTest1.operatorStation.tcp.conn-8 ssthresh:vector ETV
attr interpolationmode sample-hold
attr recordingmode vector
2304	4248801 62 3588 4568 4.00003172 5.000029 2 4294967295 4294967295 8589934590 3.6893488130239e+19
vector 2305 ModbusTest1.operatorStation.tcp.conn-8 rtt:vector ETV
attr interpolationmode sample-hold
attr recordingmode vector
2305	4248863 44 3588 4568 4.00003172 5.000029 2 0 0 0 0
vector 2306 ModbusTest1.operatorStation.tcp.conn-8 srtt:vector ETV
attr interpolationmode sample-hold
attr recordingmode vector
2306	4248907 44 3588 4568 4.00003172 5.000029 2 0 0 0 0
vector 2307 ModbusTest1.operatorStation.tcp.conn-8 rttvar:vector ETV
attr interpolationmode sample-hold
attr recordingmode vector
2307	4248951 59 3588 4568 4.00003172 5.000029 2 0.57421875 0.65625 1.23046875 0.76039123535156
vector 2308 ModbusTest1.operatorStation.tcp.conn-8 rto:vector ETV
attr interpolationmode sample-hold
attr recordingmode vector
2308	4249010 55 3588 4568 4.00003172 5.000029 2 2.296875 2.625 4.921875 12.166259765625
vector 2314 ModbusTest1.client[0].tcp.conn-9 sndWnd:vector ETV
attr interpolationmode sample-hold
attr recordingmode vector
2314	4249065 4565 54 17397 0.00001386 19.50018154 164 65535 65535 10747740 704353140900
vector 2315 ModbusTest1.client[0].tcp.conn-9 rcvWnd:vector ETV
attr interpolationmode sample-hold
attr recordingmode vector
2315	4253630 8897 54 17349 0.00001386 19.50014678 325 65523 65535 21298863 1395820200429
vector 2316 ModbusTest1.client[0].tcp.conn-9 rcvAdv:vector ETV
attr interpolationmode sample-hold
attr recordingmode vector
2316	4262527 8922 54 17349 0.00001386 19.50014678 326 65536 67499 21686384 1442741843324
vector 2318 ModbusTest1.client[0].tcp.conn-9 sndAck:vector ETV
attr interpolationmode sample-hold
attr recordingmode vector
2318	4271449 8391 54 17349 0.00001386 19.50014678 325 1 1964 321985 424101961
vector 2319 ModbusTest1.client[0].tcp.conn-9 rcvSeq:vector ETV
attr interpolationmode sample-hold
attr recordingmode vector
2319	4279840 8445 140 17397 0.00004222 19.50018154 324 1 1964 320021 420244665
vector 2320 ModbusTest1.client[0].tcp.conn-9 rcvAck:vector ETV
attr interpolationmode sample-hold
attr recordingmode vector
2320	4288285 8487 140 17397 0.00004222 19.50018154 324 4 2588 419424 723130496
vector 2321 ModbusTest1.client[0].tcp.conn-9 unacked:vector ETV
attr interpolationmode sample-hold
attr recordingmode vector
2321	4296772 7838 140 17397 0.00004222 19.50018154 325 0 29 2584 50928
vector 2322 ModbusTest1.client[0].tcp.conn-9 dupAcks:vector ETV
attr interpolationmode sample-hold
attr recordingmode vector
2322	4304610 7654 140 17397 0.00004222 19.50018154 324 0 0 0 0
vector 2324 ModbusTest1.client[0].tcp.conn-9 sndSacks:vector ETV
attr interpolationmode sample-hold
attr recordingmode vector
2324	4312264 22 140 140 0.00004222 0.00004222 1 1 1 1 1
vector 2329 ModbusTest1.client[0].tcp.conn-9 tcpRcvQueueBytes:vector ETV
attr interpolationmode sample-hold
attr recordingmode vector
2329	4312286 11386 54 17349 0.00001386 19.50014678 487 0 12 12 144
vector 2331 ModbusTest1.client[0].tcp.conn-9 tcpRcvPayloadBytes:vector ETV
attr interpolationmode sample-hold
attr recordingmode vector
2331	4323672 7816 140 17397 0.00004222 19.50018154 324 0 31 1963 24145
vector 2332 ModbusTest1.client[0].tcp.conn-9 cwnd:vector ETV
attr interpolationmode sample-hold
attr recordingmode vector
2332	4331488 4635 140 17397 0.00004222 19.50018154 163 5832 241056 20121372 3244711609296
vector 2333 ModbusTest1.client[0].tcp.conn-9 ssthresh:vector ETV
attr interpolationmode sample-hold
attr recordingmode vector
2333	4336123 5355 140 17397 0.00004222 19.50018154 163 4294967295 4294967295 700079669085 3.0068192826145e+21
vector 2334 ModbusTest1.client[0].tcp.conn-9 rtt:vector ETV
attr interpolationmode sample-hold
attr recordingmode vector
2334	4341478 3888 140 17397 0.00004222 19.50018154 163 0 0 0 0
vector 2335 ModbusTest1.client[0].tcp.conn-9 srtt:vector ETV
attr interpolationmode sample-hold
attr recordingmode vector
2335	4345366 3888 140 17397 0.00004222 19.50018154 163 0 0 0 0
vector 2336 ModbusTest1.client[0].tcp.conn-9 rttvar:vector ETV
attr interpolationmode sample-hold
attr recordingmode vector
2336	4349254 5650 140 17397 0.00004222 19.50018154 163 2.65e-10 0.65625 5.249999998243 1.8375000000024
vector 2337 ModbusTest1.client[0].tcp.conn-9 rto:vector ETV
attr interpolationmode sample-hold
attr recordingmode vector
2337	4354904 3972 140 17397 0.00004222 19.50018154 163 1 2.625 168.78421276808 180.92882764159
vector 2343 ModbusTest1.server.tcp.conn-10 sndWnd:vector ETV
attr interpolationmode sample-hold
attr recordingmode vector
2343	4358876 104 55 5045 0.00001386 5.0003328 4 65535 65535 262140 17179344900
vector 2344 ModbusTest1.server.tcp.conn-10 rcvWnd:vector ETV
attr interpolationmode sample-hold
attr recordingmode vector
2344	4358980 133 55 5003 0.00001386 5.00029852 5 65535 65535 327675 21474181125
vector 2345 ModbusTest1.server.tcp.conn-10 rcvAdv:vector ETV
attr interpolationmode sample-hold
attr recordingmode vector
2345	4359113 158 55 5003 0.00001386 5.00029852 6 65536 65601 393428 25797602852
vector 2347 ModbusTest1.server.tcp.conn-10 sndAck:vector ETV
attr interpolationmode sample-hold
attr recordingmode vector
2347	4359271 117 55 5003 0.00001386 5.00029852 5 1 66 217 12241
vector 2348 ModbusTest1.server.tcp.conn-10 rcvSeq:vector ETV
attr interpolationmode sample-hold
attr recordingmode vector
2348	4359388 116 155 5045 0.00004276 5.0003328 5 1 66 152 7886
vector 2349 ModbusTest1.server.tcp.conn-10 rcvAck:vector ETV
attr interpolationmode sample-hold
attr recordingmode vector
2349	4359504 116 155 5045 0.00004276 5.0003328 5 4 28 68 1328
vector 2350 ModbusTest1.server.tcp.conn-10 unacked:vector ETV
attr interpolationmode sample-hold
attr recordingmode vector
2350	4359620 115 155 5045 0.00004276 5.0003328 5 0 12 24 288
vector 2351 ModbusTest1.server.tcp.conn-10 dupAcks:vector ETV
attr interpolationmode sample-hold
attr recordingmode vector
2351	4359735 91 3552 5045 4.00001914 5.0003328 4 0 0 0 0
vector 2358 ModbusTest1.server.tcp.conn-10 tcpRcvQueueBytes:vector ETV
attr interpolationmode sample-hold
attr recordingmode vector
2358	4359826 159 55 5003 0.00001386 5.00029852 7 0 0 0 0
vector 2360 ModbusTest1.server.tcp.conn-10 tcpRcvPayloadBytes:vector ETV
attr interpolationmode sample-hold
attr recordingmode vector
2360	4359985 115 155 5045 0.00004276 5.0003328 5 0 41 65 2257
vector 2361 ModbusTest1.server.tcp.conn-10 cwnd:vector ETV
attr interpolationmode sample-hold
attr recordingmode vector
2361	4360100 51 4063 5045 4.00033584 5.0003328 2 5832 7284 13116 87068880
vector 2362 ModbusTest1.server.tcp.conn-10 ssthresh:vector ETV
attr interpolationmode sample-hold
attr recordingmode vector
2362	4360151 63 4063 5045 4.00033584 5.0003328 2 4294967295 4294967295 8589934590 3.6893488130239e+19
vector 2363 ModbusTest1.server.tcp.conn-10 rtt:vector ETV
attr interpolationmode sample-hold
attr recordingmode vector
2363	4360214 67 155 5045 0.00004276 5.0003328 3 0 0 0 0
vector 2364 ModbusTest1.server.tcp.conn-10 srtt:vector ETV
attr interpolationmode sample-hold
attr recordingmode vector
2364	4360281 67 155 5045 0.00004276 5.0003328 3 0 0 0 0
vector 2365 ModbusTest1.server.tcp.conn-10 rttvar:vector ETV
attr interpolationmode sample-hold
attr recordingmode vector
2365	4360348 94 155 5045 0.00004276 5.0003328 3 0.50244140625 0.65625 1.73291015625 1.012838602066
vector 2366 ModbusTest1.server.tcp.conn-10 rto:vector ETV
attr interpolationmode sample-hold
attr recordingmode vector
2366	4360442 88 155 5045 0.00004276 5.0003328 3 2.009765625 2.625 6.931640625 16.205417633057
vector 2372 ModbusTest1.client[1].tcp.conn-11 sndWnd:vector ETV
attr interpolationmode sample-hold
attr recordingmode vector
2372	4360530 2243 79 17514 0.0000217 19.5002677 82 65535 65535 5373870 352176570450
vector 2373 ModbusTest1.client[1].tcp.conn-11 rcvWnd:vector ETV
attr interpolationmode sample-hold
attr recordingmode vector
2373	4362773 4486 79 17472 0.0000217 19.50023374 161 65535 65535 10551135 691468632225
vector 2374 ModbusTest1.client[1].tcp.conn-11 rcvAdv:vector ETV
attr interpolationmode sample-hold
attr recordingmode vector
2374	4367259 4510 79 17472 0.0000217 19.50023374 162 65536 66496 10694592 706026938112
vector 2376 ModbusTest1.client[1].tcp.conn-11 sndAck:vector ETV
attr interpolationmode sample-hold
attr recordingmode vector
2376	4371769 4146 79 17472 0.0000217 19.50023374 161 1 961 77921 50233121
vector 2377 ModbusTest1.client[1].tcp.conn-11 rcvSeq:vector ETV
attr interpolationmode sample-hold
attr recordingmode vector
2377	4375915 4108 168 17514 0.00004846 19.5002677 161 1 961 76961 49309601
vector 2378 ModbusTest1.client[1].tcp.conn-11 rcvAck:vector ETV
attr interpolationmode sample-hold
attr recordingmode vector
2378	4380023 4106 168 17514 0.00004846 19.5002677 161 6 806 64966 34909796
vector 2379 ModbusTest1.client[1].tcp.conn-11 unacked:vector ETV
attr interpolationmode sample-hold
attr recordingmode vector
2379	4384129 3886 168 17514 0.00004846 19.5002677 161 0 10 800 8000
vector 2380 ModbusTest1.client[1].tcp.conn-11 dupAcks:vector ETV
attr interpolationmode sample-hold
attr recordingmode vector
2380	4388015 3784 408 17514 0.00021902 19.5002677 160 0 0 0 0
vector 2387 ModbusTest1.client[1].tcp.conn-11 tcpRcvQueueBytes:vector ETV
attr interpolationmode sample-hold
attr recordingmode vector
2387	4391799 5753 79 17472 0.0000217 19.50023374 241 0 0 0 0
vector 2389 ModbusTest1.client[1].tcp.conn-11 tcpRcvPayloadBytes:vector ETV
attr interpolationmode sample-hold
attr recordingmode vector
2389	4397552 3886 168 17514 0.00004846 19.5002677 161 0 12 960 11520
vector 2390 ModbusTest1.client[1].tcp.conn-11 cwnd:vector ETV
attr interpolationmode sample-hold
attr recordingmode vector
2390	4401438 2205 458 17514 0.00025298 19.5002677 80 5832 120540 5054880 409337896320
vector 2391 ModbusTest1.client[1].tcp.conn-11 ssthresh:vector ETV
attr interpolationmode sample-hold
attr recordingmode vector
2391	4403643 2593 458 17514 0.00025298 19.5002677 80 4294967295 4294967295 343597383600 1.4757395252096e+21
vector 2392 ModbusTest1.client[1].tcp.conn-11 rtt:vector ETV
attr interpolationmode sample-hold
attr recordingmode vector
2392	4406236 1895 168 17514 0.00004846 19.5002677 81 0 0 0 0
vector 2393 ModbusTest1.client[1].tcp.conn-11 srtt:vector ETV
attr interpolationmode sample-hold
attr recordingmode vector
2393	4408131 1895 168 17514 0.00004846 19.5002677 81 0 0 0 0
vector 2394 ModbusTest1.client[1].tcp.conn-11 rttvar:vector ETV
attr interpolationmode sample-hold
attr recordingmode vector
2394	4410026 2914 168 17514 0.00004846 19.5002677 81 1.5056137e-05 0.65625 5.249894607101 1.8374999992619
vector 2395 ModbusTest1.client[1].tcp.conn-11 rto:vector ETV
attr interpolationmode sample-hold
attr recordingmode vector
2395	4412940 1979 168 17514 0.00004846 19.5002677 81 1 2.625 86.784212768084 98.92882764159
vector 2401 ModbusTest1.operatorStation.tcp.conn-12 sndWnd:vector ETV
attr interpolationmode sample-hold
attr recordingmode vector
2401	4414919 1089 948 17207 1.00002772 19.50006382 39 65535 65535 2555865 167498612775
vector 2402 ModbusTest1.operatorStation.tcp.conn-12 rcvWnd:vector ETV
attr interpolationmode sample-hold
attr recordingmode vector
2402	4416008 2168 888 17262 1 19.50009646 78 65535 65535 5111730 334997225550
vector 2403 ModbusTest1.operatorStation.tcp.conn-12 rcvAdv:vector ETV
attr interpolationmode sample-hold
attr recordingmode vector
2403	4418176 2272 888 17262 1 19.50009646 79 65535 321581 24907173 7916172074265
vector 2405 ModbusTest1.operatorStation.tcp.conn-12 sndAck:vector ETV
attr interpolationmode sample-hold
attr recordingmode vector
2405	4420448 2241 888 17262 1 19.50009646 78 0 256046 19479904 4928378970914
vector 2406 ModbusTest1.operatorStation.tcp.conn-12 rcvSeq:vector ETV
attr interpolationmode sample-hold
attr recordingmode vector
2406	4422689 2229 948 17262 1.00002772 19.50009646 77 250003 255887 19473861 4925320916807
vector 2407 ModbusTest1.operatorStation.tcp.conn-12 rcvAck:vector ETV
attr interpolationmode sample-hold
attr recordingmode vector
2407	4424918 2229 948 17262 1.00002772 19.50009646 77 250001 250191 19257487 4816244465847
vector 2408 ModbusTest1.operatorStation.tcp.conn-12 unacked:vector ETV
attr interpolationmode sample-hold
attr recordingmode vector
2408	4427147 1821 952 17207 1.00002772 19.50006382 76 0 5 190 950
vector 2409 ModbusTest1.operatorStation.tcp.conn-12 dupAcks:vector ETV
attr interpolationmode sample-hold
attr recordingmode vector
2409	4428968 1822 1053 17262 1.00006382 19.50009646 76 0 0 0 0
vector 2416 ModbusTest1.operatorStation.tcp.conn-12 tcpRcvQueueBytes:vector ETV
attr interpolationmode sample-hold
attr recordingmode vector
2416	4430790 2767 888 17262 1 19.50009646 116 0 0 0 0
vector 2418 ModbusTest1.operatorStation.tcp.conn-12 tcpRcvPayloadBytes:vector ETV
attr interpolationmode sample-hold
attr recordingmode vector
2418	4433557 1920 948 17262 1.00002772 19.50009646 77 0 159 6042 960678
vector 2419 ModbusTest1.operatorStation.tcp.conn-12 cwnd:vector ETV
attr interpolationmode sample-hold
attr recordingmode vector
2419	4435477 1060 1053 17207 1.00006382 19.50006382 38 5832 59556 1242372 50252005296
vector 2420 ModbusTest1.operatorStation.tcp.conn-12 ssthresh:vector ETV
attr interpolationmode sample-hold
attr recordingmode vector
2420	4436537 1253 1053 17207 1.00006382 19.50006382 38 4294967295 4294967295 163208757210 7.0097627447455e+20
vector 2421 ModbusTest1.operatorStation.tcp.conn-12 rtt:vector ETV
attr interpolationmode sample-hold
attr recordingmode vector
2421	4437790 911 1053 17207 1.00006382 19.50006382 38 0 0 0 0
vector 2422 ModbusTest1.operatorStation.tcp.conn-12 srtt:vector ETV
attr interpolationmode sample-hold
attr recordingmode vector
2422	4438701 911 1053 17207 1.00006382 19.50006382 38 0 0 0 0
vector 2423 ModbusTest1.operatorStation.tcp.conn-12 rttvar:vector ETV
attr interpolationmode sample-hold
attr recordingmode vector
2423	4439612 1390 1053 17207 1.00006382 19.50006382 38 0.004692100204 0.65625 5.217155298595 1.8374280817083
vector 2424 ModbusTest1.operatorStation.tcp.conn-12 rto:vector ETV
attr interpolationmode sample-hold
attr recordingmode vector
2424	4441002 995 1053 17207 1.00006382 19.50006382 38 1 2.625 43.784212768084 55.92882764159
vector 2430 ModbusTest1.server.tcp.conn-13 sndWnd:vector ETV
attr interpolationmode sample-hold
attr recordingmode vector
2430	4441997 1115 911 17293 1.00001386 19.50010904 40 65535 65535 2621400 171793449000
vector 2431 ModbusTest1.server.tcp.conn-13 rcvWnd:vector ETV
attr interpolationmode sample-hold
attr recordingmode vector
2431	4443112 2152 911 17165 1.00001386 19.50004348 77 65535 65535 5046195 330702389325
vector 2432 ModbusTest1.server.tcp.conn-13 rcvAdv:vector ETV
attr interpolationmode sample-hold
attr recordingmode vector
2432	4445264 2256 911 17165 1.00001386 19.50004348 78 315536 315726 24619218 7770588643558
vector 2433 ModbusTest1.server.tcp.conn-13 sndNxt:vector ETV
attr interpolationmode sample-hold
attr recordingmode vector
2433	4447520 1101 1020 17165 1.00005068 19.50004348 38 250004 255887 9611929 2431409708399
vector 2434 ModbusTest1.server.tcp.conn-13 sndAck:vector ETV
attr interpolationmode sample-hold
attr recordingmode vector
2434	4448621 2229 911 17165 1.00001386 19.50004348 77 250001 250191 19257487 4816244465847
vector 2435 ModbusTest1.server.tcp.conn-13 rcvSeq:vector ETV
attr interpolationmode sample-hold
attr recordingmode vector
2435	4450850 2229 999 17293 1.00004308 19.50010904 77 250001 250191 19257297 4816149429367
vector 2436 ModbusTest1.server.tcp.conn-13 rcvAck:vector ETV
attr interpolationmode sample-hold
attr recordingmode vector
2436	4453079 2229 999 17293 1.00004308 19.50010904 77 250004 256046 19479904 4928378970914
vector 2437 ModbusTest1.server.tcp.conn-13 unacked:vector ETV
attr interpolationmode sample-hold
attr recordingmode vector
2437	4455308 1920 999 17293 1.00004308 19.50010904 77 0 159 6042 960678
vector 2438 ModbusTest1.server.tcp.conn-13 dupAcks:vector ETV
attr interpolationmode sample-hold
attr recordingmode vector
2438	4457228 1822 1017 17293 1.00005068 19.50010904 76 0 0 0 0
vector 2445 ModbusTest1.server.tcp.conn-13 tcpRcvQueueBytes:vector ETV
attr interpolationmode sample-hold
attr recordingmode vector
2445	4459050 2755 911 17165 1.00001386 19.50004348 115 0 0 0 0
vector 2447 ModbusTest1.server.tcp.conn-13 tcpRcvPayloadBytes:vector ETV
attr interpolationmode sample-hold
attr recordingmode vector
2447	4461805 1844 999 17293 1.00004308 19.50010904 77 0 5 190 950
vector 2448 ModbusTest1.server.tcp.conn-13 cwnd:vector ETV
attr interpolationmode sample-hold
attr recordingmode vector
2448	4463649 1060 1139 17293 1.00010904 19.50010904 38 5832 59556 1242372 50252005296
vector 2449 ModbusTest1.server.tcp.conn-13 ssthresh:vector ETV
attr interpolationmode sample-hold
attr recordingmode vector
2449	4464709 1253 1139 17293 1.00010904 19.50010904 38 4294967295 4294967295 163208757210 7.0097627447455e+20
vector 2450 ModbusTest1.server.tcp.conn-13 rtt:vector ETV
attr interpolationmode sample-hold
attr recordingmode vector
2450	4465962 933 999 17293 1.00004308 19.50010904 39 0 1 1 1
vector 2451 ModbusTest1.server.tcp.conn-13 srtt:vector ETV
attr interpolationmode sample-hold
attr recordingmode vector
2451	4466895 1419 999 17293 1.00004308 19.50010904 39 0.000782016701 0.125 0.994525883102 0.066664668936202
vector 2452 ModbusTest1.server.tcp.conn-13 rttvar:vector ETV
attr interpolationmode sample-hold
attr recordingmode vector
2452	4468314 1422 999 17293 1.00004308 19.50010904 39 0.009132837897 0.78125 7.179814001148 3.0262348169352
vector 2453 ModbusTest1.server.tcp.conn-13 rto:vector ETV
attr interpolationmode sample-hold
attr recordingmode vector
2453	4469736 1055 999 17293 1.00004308 19.50010904 39 1 3.25 49.647350456813 75.937113636971
