file 4457224 1761792720                                         
version 3
run HardInLoop-0-20251030-10:50:05-6300
attr configname HardInLoop
attr datetime 20251030-10:50:05
attr datetimef 20251030-105005
attr experiment HardInLoop
attr inifile omnetpp.ini
attr iterationvars ""
attr iterationvarsd ""
attr iterationvarsf ""
attr measurement ""
attr network ModbusTest1
attr processid 6300
attr repetition 0
attr replication #0
attr resultdir results
attr runnumber 0
attr seedset 0
config image-path ../../inet4.5/images
config scheduler-class inet::RealTimeScheduler
config *.client[0].numApps 1
config *.client[0].app[0].typename ModbusSlaveHILApp
config *.client[0].app[0].localPort 502
config *.client[0].app[0].remoteAddress "\"192.168.43.203\""
config *.client[0].app[0].remotePort 502
config *.client[*].numApps 1
config *.client[*].app[0].typename ModbusSlaveApp
config *.client[*].app[0].localPort 502
config *.client[*].app[0].slavesConfigPath "\"SlaveConfig.json\""
config network ModbusTest1
config sim-time-limit 20s
config *.*.eth[*].bitrate 100Mbps
config *.numClients 2
config *.operatorStation.numApps 2
config *.operatorStation.app[0].typename OperatorStationApp
config *.operatorStation.app[0].connectAddress "\"server\""
config *.operatorStation.app[0].connectPort 1000
config *.operatorStation.app[0].interval 0.5s
config *.operatorStation.app[1].typename OperatorStationApp2
config *.operatorStation.app[1].connectAddress "\"server\""
config *.operatorStation.app[1].connectPort 666
config *.operatorStation.app[1].modbusRequest "\"client[0] 01 10 000B 0009 00 01 00 02 00 03 00 04 00 05 00 06 00 07 00 08 00 09\""
config *.operatorStation.app[1].sendTime 4s
config *.server.numApps 3
config *.server.app[0].typename ModbusMasterApp
config *.server.app[0].numConnect 2
config *.server.app[0].configFile "\"MasterConfig.json\""
config *.server.app[0].readInterval 0.5s
config *.server.app[1].typename ModbusTcpServerApp
config *.server.app[1].localPort 1000
config *.server.app[2].typename TransitApp
config *.server.app[2].localPort 666
config **.tcp.typename Tcp
config **.tcp.advertisedWindow 65535
config **.tcp.delayedAcksEnabled false
config **.tcp.nagleEnabled false
config **.tcp.limitedTransmitEnabled true
config **.tcp.increasedIWEnabled true
config **.tcp.sackSupport true
config **.tcp.windowScalingSupport true
config **.tcp.timestampSupport true
config **.tcp.mss 1452
config **.tcp.tcpAlgorithmClass "\"TcpReno\""
config **.crcMode "\"computed\""
config **.fcsMode "\"computed\""
config *.server.numPcapRecorders 1
config *.server.pcapRecorder[*].pcapFile "\"results/server.pcap\""
config *.visualizer.interfaceTableVisualizer.displayInterfaceTables true

vector 0 ModbusTest1.operatorStation.ethernet.macHeaderInserter incomingPacketLengths:vector ETV
attr interpolationmode none
attr recordingmode vector
attr source "packetLength(merge(packetPushedIn, packetPulledIn))"
attr title "incoming packet lengths"
attr unit b
vector 1 ModbusTest1.operatorStation.ethernet.macHeaderInserter incomingDataRate:vector ETV
attr interpolationmode linear
attr recordingmode vector
attr source "throughput(merge(packetPushedIn, packetPulledIn))"
attr title "incoming data rate"
attr unit bps
vector 2 ModbusTest1.operatorStation.ethernet.macHeaderInserter outgoingPacketLengths:vector ETV
attr interpolationmode none
attr recordingmode vector
attr source "packetLength(merge(packetPushedOut, packetPulledOut))"
attr title "outgoing packet lengths"
attr unit b
vector 3 ModbusTest1.operatorStation.ethernet.macHeaderInserter outgoingDataRate:vector ETV
attr interpolationmode linear
attr recordingmode vector
attr source "throughput(merge(packetPushedOut, packetPulledOut))"
attr title "outgoing data rate"
attr unit bps
vector 4 ModbusTest1.operatorStation.ethernet.macHeaderInserter flowIncomingPacketLengths:vector ETV
attr interpolationmode none
attr recordingmode vector
attr source "packetLength(demuxFlow(merge(packetPushedIn, packetPulledIn)))"
attr title "flow specific incoming packet lengths"
attr unit b
vector 5 ModbusTest1.operatorStation.ethernet.macHeaderInserter flowIncomingDataRate:vector ETV
attr interpolationmode linear
attr recordingmode vector
attr source "throughput(demuxFlow(merge(packetPushedIn, packetPulledIn)))"
attr title "flow specific incoming data rate"
attr unit bps
vector 6 ModbusTest1.operatorStation.ethernet.macHeaderInserter flowOutgoingPacketLengths:vector ETV
attr interpolationmode none
attr recordingmode vector
attr source "packetLength(demuxFlow(merge(packetPushedOut, packetPulledOut)))"
attr title "flow specific outgoing packet lengths"
attr unit b
vector 7 ModbusTest1.operatorStation.ethernet.macHeaderInserter flowOutgoingDataRate:vector ETV
attr interpolationmode linear
attr recordingmode vector
attr source "throughput(demuxFlow(merge(packetPushedOut, packetPulledOut)))"
attr title "flow specific outgoing data rate"
attr unit bps
vector 8 ModbusTest1.operatorStation.ethernet.paddingInserter incomingPacketLengths:vector ETV
attr interpolationmode none
attr recordingmode vector
attr source "packetLength(merge(packetPushedIn, packetPulledIn))"
attr title "incoming packet lengths"
attr unit b
vector 9 ModbusTest1.operatorStation.ethernet.paddingInserter incomingDataRate:vector ETV
attr interpolationmode linear
attr recordingmode vector
attr source "throughput(merge(packetPushedIn, packetPulledIn))"
attr title "incoming data rate"
attr unit bps
vector 10 ModbusTest1.operatorStation.ethernet.paddingInserter outgoingPacketLengths:vector ETV
attr interpolationmode none
attr recordingmode vector
attr source "packetLength(merge(packetPushedOut, packetPulledOut))"
attr title "outgoing packet lengths"
attr unit b
vector 11 ModbusTest1.operatorStation.ethernet.paddingInserter outgoingDataRate:vector ETV
attr interpolationmode linear
attr recordingmode vector
attr source "throughput(merge(packetPushedOut, packetPulledOut))"
attr title "outgoing data rate"
attr unit bps
vector 12 ModbusTest1.operatorStation.ethernet.paddingInserter flowIncomingPacketLengths:vector ETV
attr interpolationmode none
attr recordingmode vector
attr source "packetLength(demuxFlow(merge(packetPushedIn, packetPulledIn)))"
attr title "flow specific incoming packet lengths"
attr unit b
vector 13 ModbusTest1.operatorStation.ethernet.paddingInserter flowIncomingDataRate:vector ETV
attr interpolationmode linear
attr recordingmode vector
attr source "throughput(demuxFlow(merge(packetPushedIn, packetPulledIn)))"
attr title "flow specific incoming data rate"
attr unit bps
vector 14 ModbusTest1.operatorStation.ethernet.paddingInserter flowOutgoingPacketLengths:vector ETV
attr interpolationmode none
attr recordingmode vector
attr source "packetLength(demuxFlow(merge(packetPushedOut, packetPulledOut)))"
attr title "flow specific outgoing packet lengths"
attr unit b
vector 15 ModbusTest1.operatorStation.ethernet.paddingInserter flowOutgoingDataRate:vector ETV
attr interpolationmode linear
attr recordingmode vector
attr source "throughput(demuxFlow(merge(packetPushedOut, packetPulledOut)))"
attr title "flow specific outgoing data rate"
attr unit bps
vector 16 ModbusTest1.operatorStation.ethernet.fcsInserter incomingPacketLengths:vector ETV
attr interpolationmode none
attr recordingmode vector
attr source "packetLength(merge(packetPushedIn, packetPulledIn))"
attr title "incoming packet lengths"
attr unit b
vector 17 ModbusTest1.operatorStation.ethernet.fcsInserter incomingDataRate:vector ETV
attr interpolationmode linear
attr recordingmode vector
attr source "throughput(merge(packetPushedIn, packetPulledIn))"
attr title "incoming data rate"
attr unit bps
vector 18 ModbusTest1.operatorStation.ethernet.fcsInserter outgoingPacketLengths:vector ETV
attr interpolationmode none
attr recordingmode vector
attr source "packetLength(merge(packetPushedOut, packetPulledOut))"
attr title "outgoing packet lengths"
attr unit b
vector 19 ModbusTest1.operatorStation.ethernet.fcsInserter outgoingDataRate:vector ETV
attr interpolationmode linear
attr recordingmode vector
attr source "throughput(merge(packetPushedOut, packetPulledOut))"
attr title "outgoing data rate"
attr unit bps
vector 20 ModbusTest1.operatorStation.ethernet.fcsInserter flowIncomingPacketLengths:vector ETV
attr interpolationmode none
attr recordingmode vector
attr source "packetLength(demuxFlow(merge(packetPushedIn, packetPulledIn)))"
attr title "flow specific incoming packet lengths"
attr unit b
vector 21 ModbusTest1.operatorStation.ethernet.fcsInserter flowIncomingDataRate:vector ETV
attr interpolationmode linear
attr recordingmode vector
attr source "throughput(demuxFlow(merge(packetPushedIn, packetPulledIn)))"
attr title "flow specific incoming data rate"
attr unit bps
vector 22 ModbusTest1.operatorStation.ethernet.fcsInserter flowOutgoingPacketLengths:vector ETV
attr interpolationmode none
attr recordingmode vector
attr source "packetLength(demuxFlow(merge(packetPushedOut, packetPulledOut)))"
attr title "flow specific outgoing packet lengths"
attr unit b
vector 23 ModbusTest1.operatorStation.ethernet.fcsInserter flowOutgoingDataRate:vector ETV
attr interpolationmode linear
attr recordingmode vector
attr source "throughput(demuxFlow(merge(packetPushedOut, packetPulledOut)))"
attr title "flow specific outgoing data rate"
attr unit bps
vector 24 ModbusTest1.operatorStation.ethernet.macHeaderChecker incomingPacketLengths:vector ETV
attr interpolationmode none
attr recordingmode vector
attr source "packetLength(merge(packetPushedIn, packetPulledIn))"
attr title "incoming packet lengths"
attr unit b
vector 25 ModbusTest1.operatorStation.ethernet.macHeaderChecker incomingDataRate:vector ETV
attr interpolationmode linear
attr recordingmode vector
attr source "throughput(merge(packetPushedIn, packetPulledIn))"
attr title "incoming data rate"
attr unit bps
vector 26 ModbusTest1.operatorStation.ethernet.macHeaderChecker outgoingPacketLengths:vector ETV
attr interpolationmode none
attr recordingmode vector
attr source "packetLength(merge(packetPushedOut, packetPulledOut))"
attr title "outgoing packet lengths"
attr unit b
vector 27 ModbusTest1.operatorStation.ethernet.macHeaderChecker outgoingDataRate:vector ETV
attr interpolationmode linear
attr recordingmode vector
attr source "throughput(merge(packetPushedOut, packetPulledOut))"
attr title "outgoing data rate"
attr unit bps
vector 28 ModbusTest1.operatorStation.ethernet.macHeaderChecker droppedPacketLengths:vector ETV
attr interpolationmode none
attr recordingmode vector
attr source packetLength(packetDropped)
attr title "dropped packet lengths"
attr unit b
vector 29 ModbusTest1.operatorStation.ethernet.macHeaderChecker droppedDataRate:vector ETV
attr interpolationmode linear
attr recordingmode vector
attr source throughput(packetDropped)
attr title "dropped data rate"
attr unit bps
vector 30 ModbusTest1.operatorStation.ethernet.macHeaderChecker flowIncomingPacketLengths:vector ETV
attr interpolationmode none
attr recordingmode vector
attr source "packetLength(demuxFlow(merge(packetPushedIn, packetPulledIn)))"
attr title "flow specific incoming packet lengths"
attr unit b
vector 31 ModbusTest1.operatorStation.ethernet.macHeaderChecker flowIncomingDataRate:vector ETV
attr interpolationmode linear
attr recordingmode vector
attr source "throughput(demuxFlow(merge(packetPushedIn, packetPulledIn)))"
attr title "flow specific incoming data rate"
attr unit bps
vector 32 ModbusTest1.operatorStation.ethernet.macHeaderChecker flowOutgoingPacketLengths:vector ETV
attr interpolationmode none
attr recordingmode vector
attr source "packetLength(demuxFlow(merge(packetPushedOut, packetPulledOut)))"
attr title "flow specific outgoing packet lengths"
attr unit b
vector 33 ModbusTest1.operatorStation.ethernet.macHeaderChecker flowOutgoingDataRate:vector ETV
attr interpolationmode linear
attr recordingmode vector
attr source "throughput(demuxFlow(merge(packetPushedOut, packetPulledOut)))"
attr title "flow specific outgoing data rate"
attr unit bps
vector 34 ModbusTest1.operatorStation.ethernet.macHeaderChecker flowDroppedPacketLengths:vector ETV
attr interpolationmode none
attr recordingmode vector
attr source packetLength(demuxFlow(packetDropped))
attr title "flow specific dropped packet lengths"
attr unit b
vector 35 ModbusTest1.operatorStation.ethernet.macHeaderChecker flowDroppedDataRate:vector ETV
attr interpolationmode linear
attr recordingmode vector
attr source throughput(demuxFlow(packetDropped))
attr title "flow specific dropped data rate"
attr unit bps
vector 36 ModbusTest1.operatorStation.ethernet.fcsChecker incomingPacketLengths:vector ETV
attr interpolationmode none
attr recordingmode vector
attr source "packetLength(merge(packetPushedIn, packetPulledIn))"
attr title "incoming packet lengths"
attr unit b
vector 37 ModbusTest1.operatorStation.ethernet.fcsChecker incomingDataRate:vector ETV
attr interpolationmode linear
attr recordingmode vector
attr source "throughput(merge(packetPushedIn, packetPulledIn))"
attr title "incoming data rate"
attr unit bps
vector 38 ModbusTest1.operatorStation.ethernet.fcsChecker outgoingPacketLengths:vector ETV
attr interpolationmode none
attr recordingmode vector
attr source "packetLength(merge(packetPushedOut, packetPulledOut))"
attr title "outgoing packet lengths"
attr unit b
vector 39 ModbusTest1.operatorStation.ethernet.fcsChecker outgoingDataRate:vector ETV
attr interpolationmode linear
attr recordingmode vector
attr source "throughput(merge(packetPushedOut, packetPulledOut))"
attr title "outgoing data rate"
attr unit bps
vector 40 ModbusTest1.operatorStation.ethernet.fcsChecker droppedPacketLengths:vector ETV
attr interpolationmode none
attr recordingmode vector
attr source packetLength(packetDropped)
attr title "dropped packet lengths"
attr unit b
vector 41 ModbusTest1.operatorStation.ethernet.fcsChecker droppedDataRate:vector ETV
attr interpolationmode linear
attr recordingmode vector
attr source throughput(packetDropped)
attr title "dropped data rate"
attr unit bps
vector 42 ModbusTest1.operatorStation.ethernet.fcsChecker flowIncomingPacketLengths:vector ETV
attr interpolationmode none
attr recordingmode vector
attr source "packetLength(demuxFlow(merge(packetPushedIn, packetPulledIn)))"
attr title "flow specific incoming packet lengths"
attr unit b
vector 43 ModbusTest1.operatorStation.ethernet.fcsChecker flowIncomingDataRate:vector ETV
attr interpolationmode linear
attr recordingmode vector
attr source "throughput(demuxFlow(merge(packetPushedIn, packetPulledIn)))"
attr title "flow specific incoming data rate"
attr unit bps
vector 44 ModbusTest1.operatorStation.ethernet.fcsChecker flowOutgoingPacketLengths:vector ETV
attr interpolationmode none
attr recordingmode vector
attr source "packetLength(demuxFlow(merge(packetPushedOut, packetPulledOut)))"
attr title "flow specific outgoing packet lengths"
attr unit b
vector 45 ModbusTest1.operatorStation.ethernet.fcsChecker flowOutgoingDataRate:vector ETV
attr interpolationmode linear
attr recordingmode vector
attr source "throughput(demuxFlow(merge(packetPushedOut, packetPulledOut)))"
attr title "flow specific outgoing data rate"
attr unit bps
vector 46 ModbusTest1.operatorStation.ethernet.fcsChecker flowDroppedPacketLengths:vector ETV
attr interpolationmode none
attr recordingmode vector
attr source packetLength(demuxFlow(packetDropped))
attr title "flow specific dropped packet lengths"
attr unit b
vector 47 ModbusTest1.operatorStation.ethernet.fcsChecker flowDroppedDataRate:vector ETV
attr interpolationmode linear
attr recordingmode vector
attr source throughput(demuxFlow(packetDropped))
attr title "flow specific dropped data rate"
attr unit bps
vector 48 ModbusTest1.operatorStation.lo[0].lo rcvdPkFromHl:vector(packetBytes) ETV
attr interpolationmode none
attr recordingmode vector(packetBytes)
attr source packetReceivedFromUpper
attr title "packets received from higher layer, packetBytes"
vector 49 ModbusTest1.operatorStation.lo[0].lo passedUpPk:vector(packetBytes) ETV
attr interpolationmode none
attr recordingmode vector(packetBytes)
attr source packetSentToUpper
attr title "packets passed to higher layer, packetBytes"
vector 50 ModbusTest1.operatorStation.lo[0] packetDropInterfaceDown:vector(packetBytes) ETV
attr interpolationmode none
attr recordingmode vector(packetBytes)
attr source packetDropReasonIsInterfaceDown(packetDropped)
attr title "packet drops: interface down, packetBytes"
vector 51 ModbusTest1.operatorStation.lo[0] packetDropNoCarrier:vector(packetBytes) ETV
attr interpolationmode none
attr recordingmode vector(packetBytes)
attr source packetDropReasonIsNoCarrier(packetDropped)
attr title "packet drops: no carrier, packetBytes"
vector 52 ModbusTest1.operatorStation.eth[0].macLayer.queue queueLength:vector ETV
attr autoWarmupFilter false
attr interpolationmode sample-hold
attr recordingmode vector
attr source "warmup(atomic(constant0(packetPushEnded) + count(packetPushStarted) - count(packetPulled) - count(packetRemoved) - count(packetDropped)))"
attr title "queue length"
attr unit pk
vector 53 ModbusTest1.operatorStation.eth[0].macLayer.queue queueBitLength:vector ETV
attr autoWarmupFilter false
attr interpolationmode sample-hold
attr recordingmode vector
attr source "warmup(atomic(constant0(packetPushEnded) + sum(packetLength(packetPushStarted)) - sum(packetLength(packetPulled)) - sum(packetLength(packetRemoved)) - sum(packetLength(packetDropped))))"
attr title "queue bit length"
attr unit b
vector 54 ModbusTest1.operatorStation.eth[0].macLayer.queue queueingTime:vector ETV
attr interpolationmode none
attr recordingmode vector
attr source queueingTime(packetPulled)
attr title "queueing times"
attr unit s
vector 55 ModbusTest1.operatorStation.eth[0].macLayer.queue incomingPacketLengths:vector ETV
attr interpolationmode none
attr recordingmode vector
attr source packetLength(packetPushStarted)
attr title "incoming packet lengths"
attr unit b
vector 56 ModbusTest1.operatorStation.eth[0].macLayer.queue incomingDataRate:vector ETV
attr interpolationmode linear
attr recordingmode vector
attr source throughput(packetPushStarted)
attr title "incoming datarate"
attr unit bps
vector 57 ModbusTest1.operatorStation.eth[0].macLayer.queue outgoingPacketLengths:vector ETV
attr interpolationmode none
attr recordingmode vector
attr source packetLength(packetPulled)
attr title "outgoing packet lengths"
attr unit b
vector 58 ModbusTest1.operatorStation.eth[0].macLayer.queue outgoingDataRate:vector ETV
attr interpolationmode linear
attr recordingmode vector
attr source throughput(packetPulled)
attr title "outgoing datarate"
attr unit bps
vector 59 ModbusTest1.operatorStation.eth[0].macLayer.queue droppedPacketLengthsQueueOverflow:vector ETV
attr interpolationmode none
attr recordingmode vector
attr source packetLength(packetDropReasonIsQueueOverflow(packetDropped))
attr title "dropped packet lengths: queue overflow"
attr unit b
vector 60 ModbusTest1.operatorStation.eth[0].macLayer.queue flowQueueingTime:vector ETV
attr interpolationmode none
attr recordingmode vector
attr source queueingTime(demuxFlow(packetPulled))
attr title "flow queueing times"
attr unit s
vector 61 ModbusTest1.operatorStation.eth[0].macLayer.queue flowIncomingDataRate:vector ETV
attr interpolationmode linear
attr recordingmode vector
attr source throughput(flowPacketLength(demuxFlow(packetPushStarted)))
attr title "flow specific incoming data rate"
attr unit bps
vector 62 ModbusTest1.operatorStation.eth[0].macLayer.queue flowOutgoingDataRate:vector ETV
attr interpolationmode linear
attr recordingmode vector
attr source throughput(flowPacketLength(demuxFlow(packetPulled)))
attr title "flow specific outgoing data rate"
attr unit bps
vector 63 ModbusTest1.operatorStation.eth[0].macLayer.server incomingPacketLengths:vector ETV
attr interpolationmode none
attr recordingmode vector
attr source packetLength(packetPulled)
attr title "incoming packet lengths"
attr unit b
vector 64 ModbusTest1.operatorStation.eth[0].macLayer.server incomingDataRate:vector ETV
attr interpolationmode linear
attr recordingmode vector
attr source throughput(packetPulled)
attr title "incoming datarate"
attr unit bps
vector 65 ModbusTest1.operatorStation.eth[0].macLayer.server outgoingPacketLengths:vector ETV
attr interpolationmode none
attr recordingmode vector
attr source packetLength(packetPushed)
attr title "outgoing packet lengths"
attr unit b
vector 66 ModbusTest1.operatorStation.eth[0].macLayer.server outgoingDataRate:vector ETV
attr interpolationmode linear
attr recordingmode vector
attr source throughput(packetPushed)
attr title "outgoing datarate"
attr unit bps
vector 67 ModbusTest1.operatorStation.eth[0].macLayer.outboundEmitter incomingPacketLengths:vector ETV
attr interpolationmode none
attr recordingmode vector
attr source "packetLength(merge(packetPushedIn, packetPulledIn))"
attr title "incoming packet lengths"
attr unit b
vector 68 ModbusTest1.operatorStation.eth[0].macLayer.outboundEmitter incomingDataRate:vector ETV
attr interpolationmode linear
attr recordingmode vector
attr source "throughput(merge(packetPushedIn, packetPulledIn))"
attr title "incoming data rate"
attr unit bps
vector 69 ModbusTest1.operatorStation.eth[0].macLayer.outboundEmitter outgoingPacketLengths:vector ETV
attr interpolationmode none
attr recordingmode vector
attr source "packetLength(merge(packetPushedOut, packetPulledOut))"
attr title "outgoing packet lengths"
attr unit b
vector 70 ModbusTest1.operatorStation.eth[0].macLayer.outboundEmitter outgoingDataRate:vector ETV
attr interpolationmode linear
attr recordingmode vector
attr source "throughput(merge(packetPushedOut, packetPulledOut))"
attr title "outgoing data rate"
attr unit bps
vector 71 ModbusTest1.operatorStation.eth[0].macLayer.outboundEmitter flowIncomingPacketLengths:vector ETV
attr interpolationmode none
attr recordingmode vector
attr source "packetLength(demuxFlow(merge(packetPushedIn, packetPulledIn)))"
attr title "flow specific incoming packet lengths"
attr unit b
vector 72 ModbusTest1.operatorStation.eth[0].macLayer.outboundEmitter flowIncomingDataRate:vector ETV
attr interpolationmode linear
attr recordingmode vector
attr source "throughput(demuxFlow(merge(packetPushedIn, packetPulledIn)))"
attr title "flow specific incoming data rate"
attr unit bps
vector 73 ModbusTest1.operatorStation.eth[0].macLayer.outboundEmitter flowOutgoingPacketLengths:vector ETV
attr interpolationmode none
attr recordingmode vector
attr source "packetLength(demuxFlow(merge(packetPushedOut, packetPulledOut)))"
attr title "flow specific outgoing packet lengths"
attr unit b
vector 74 ModbusTest1.operatorStation.eth[0].macLayer.outboundEmitter flowOutgoingDataRate:vector ETV
attr interpolationmode linear
attr recordingmode vector
attr source "throughput(demuxFlow(merge(packetPushedOut, packetPulledOut)))"
attr title "flow specific outgoing data rate"
attr unit bps
vector 75 ModbusTest1.operatorStation.eth[0].macLayer.fcsChecker incomingPacketLengths:vector ETV
attr interpolationmode none
attr recordingmode vector
attr source "packetLength(merge(packetPushedIn, packetPulledIn))"
attr title "incoming packet lengths"
attr unit b
vector 76 ModbusTest1.operatorStation.eth[0].macLayer.fcsChecker incomingDataRate:vector ETV
attr interpolationmode linear
attr recordingmode vector
attr source "throughput(merge(packetPushedIn, packetPulledIn))"
attr title "incoming data rate"
attr unit bps
vector 77 ModbusTest1.operatorStation.eth[0].macLayer.fcsChecker outgoingPacketLengths:vector ETV
attr interpolationmode none
attr recordingmode vector
attr source "packetLength(merge(packetPushedOut, packetPulledOut))"
attr title "outgoing packet lengths"
attr unit b
vector 78 ModbusTest1.operatorStation.eth[0].macLayer.fcsChecker outgoingDataRate:vector ETV
attr interpolationmode linear
attr recordingmode vector
attr source "throughput(merge(packetPushedOut, packetPulledOut))"
attr title "outgoing data rate"
attr unit bps
vector 79 ModbusTest1.operatorStation.eth[0].macLayer.fcsChecker droppedPacketLengths:vector ETV
attr interpolationmode none
attr recordingmode vector
attr source packetLength(packetDropped)
attr title "dropped packet lengths"
attr unit b
vector 80 ModbusTest1.operatorStation.eth[0].macLayer.fcsChecker droppedDataRate:vector ETV
attr interpolationmode linear
attr recordingmode vector
attr source throughput(packetDropped)
attr title "dropped data rate"
attr unit bps
vector 81 ModbusTest1.operatorStation.eth[0].macLayer.fcsChecker flowIncomingPacketLengths:vector ETV
attr interpolationmode none
attr recordingmode vector
attr source "packetLength(demuxFlow(merge(packetPushedIn, packetPulledIn)))"
attr title "flow specific incoming packet lengths"
attr unit b
vector 82 ModbusTest1.operatorStation.eth[0].macLayer.fcsChecker flowIncomingDataRate:vector ETV
attr interpolationmode linear
attr recordingmode vector
attr source "throughput(demuxFlow(merge(packetPushedIn, packetPulledIn)))"
attr title "flow specific incoming data rate"
attr unit bps
vector 83 ModbusTest1.operatorStation.eth[0].macLayer.fcsChecker flowOutgoingPacketLengths:vector ETV
attr interpolationmode none
attr recordingmode vector
attr source "packetLength(demuxFlow(merge(packetPushedOut, packetPulledOut)))"
attr title "flow specific outgoing packet lengths"
attr unit b
vector 84 ModbusTest1.operatorStation.eth[0].macLayer.fcsChecker flowOutgoingDataRate:vector ETV
attr interpolationmode linear
attr recordingmode vector
attr source "throughput(demuxFlow(merge(packetPushedOut, packetPulledOut)))"
attr title "flow specific outgoing data rate"
attr unit bps
vector 85 ModbusTest1.operatorStation.eth[0].macLayer.fcsChecker flowDroppedPacketLengths:vector ETV
attr interpolationmode none
attr recordingmode vector
attr source packetLength(demuxFlow(packetDropped))
attr title "flow specific dropped packet lengths"
attr unit b
vector 86 ModbusTest1.operatorStation.eth[0].macLayer.fcsChecker flowDroppedDataRate:vector ETV
attr interpolationmode linear
attr recordingmode vector
attr source throughput(demuxFlow(packetDropped))
attr title "flow specific dropped data rate"
attr unit bps
vector 87 ModbusTest1.operatorStation.eth[0].macLayer.inboundEmitter incomingPacketLengths:vector ETV
attr interpolationmode none
attr recordingmode vector
attr source "packetLength(merge(packetPushedIn, packetPulledIn))"
attr title "incoming packet lengths"
attr unit b
vector 88 ModbusTest1.operatorStation.eth[0].macLayer.inboundEmitter incomingDataRate:vector ETV
attr interpolationmode linear
attr recordingmode vector
attr source "throughput(merge(packetPushedIn, packetPulledIn))"
attr title "incoming data rate"
attr unit bps
vector 89 ModbusTest1.operatorStation.eth[0].macLayer.inboundEmitter outgoingPacketLengths:vector ETV
attr interpolationmode none
attr recordingmode vector
attr source "packetLength(merge(packetPushedOut, packetPulledOut))"
attr title "outgoing packet lengths"
attr unit b
vector 90 ModbusTest1.operatorStation.eth[0].macLayer.inboundEmitter outgoingDataRate:vector ETV
attr interpolationmode linear
attr recordingmode vector
attr source "throughput(merge(packetPushedOut, packetPulledOut))"
attr title "outgoing data rate"
attr unit bps
vector 91 ModbusTest1.operatorStation.eth[0].macLayer.inboundEmitter flowIncomingPacketLengths:vector ETV
attr interpolationmode none
attr recordingmode vector
attr source "packetLength(demuxFlow(merge(packetPushedIn, packetPulledIn)))"
attr title "flow specific incoming packet lengths"
attr unit b
vector 92 ModbusTest1.operatorStation.eth[0].macLayer.inboundEmitter flowIncomingDataRate:vector ETV
attr interpolationmode linear
attr recordingmode vector
attr source "throughput(demuxFlow(merge(packetPushedIn, packetPulledIn)))"
attr title "flow specific incoming data rate"
attr unit bps
vector 93 ModbusTest1.operatorStation.eth[0].macLayer.inboundEmitter flowOutgoingPacketLengths:vector ETV
attr interpolationmode none
attr recordingmode vector
attr source "packetLength(demuxFlow(merge(packetPushedOut, packetPulledOut)))"
attr title "flow specific outgoing packet lengths"
attr unit b
vector 94 ModbusTest1.operatorStation.eth[0].macLayer.inboundEmitter flowOutgoingDataRate:vector ETV
attr interpolationmode linear
attr recordingmode vector
attr source "throughput(demuxFlow(merge(packetPushedOut, packetPulledOut)))"
attr title "flow specific outgoing data rate"
attr unit bps
vector 95 ModbusTest1.operatorStation.eth[0].phyLayer.phyHeaderInserter incomingPacketLengths:vector ETV
attr interpolationmode none
attr recordingmode vector
attr source "packetLength(merge(packetPushedIn, packetPulledIn))"
attr title "incoming packet lengths"
attr unit b
vector 96 ModbusTest1.operatorStation.eth[0].phyLayer.phyHeaderInserter incomingDataRate:vector ETV
attr interpolationmode linear
attr recordingmode vector
attr source "throughput(merge(packetPushedIn, packetPulledIn))"
attr title "incoming data rate"
attr unit bps
vector 97 ModbusTest1.operatorStation.eth[0].phyLayer.phyHeaderInserter outgoingPacketLengths:vector ETV
attr interpolationmode none
attr recordingmode vector
attr source "packetLength(merge(packetPushedOut, packetPulledOut))"
attr title "outgoing packet lengths"
attr unit b
vector 98 ModbusTest1.operatorStation.eth[0].phyLayer.phyHeaderInserter outgoingDataRate:vector ETV
attr interpolationmode linear
attr recordingmode vector
attr source "throughput(merge(packetPushedOut, packetPulledOut))"
attr title "outgoing data rate"
attr unit bps
vector 99 ModbusTest1.operatorStation.eth[0].phyLayer.phyHeaderInserter flowIncomingPacketLengths:vector ETV
attr interpolationmode none
attr recordingmode vector
attr source "packetLength(demuxFlow(merge(packetPushedIn, packetPulledIn)))"
attr title "flow specific incoming packet lengths"
attr unit b
vector 100 ModbusTest1.operatorStation.eth[0].phyLayer.phyHeaderInserter flowIncomingDataRate:vector ETV
attr interpolationmode linear
attr recordingmode vector
attr source "throughput(demuxFlow(merge(packetPushedIn, packetPulledIn)))"
attr title "flow specific incoming data rate"
attr unit bps
vector 101 ModbusTest1.operatorStation.eth[0].phyLayer.phyHeaderInserter flowOutgoingPacketLengths:vector ETV
attr interpolationmode none
attr recordingmode vector
attr source "packetLength(demuxFlow(merge(packetPushedOut, packetPulledOut)))"
attr title "flow specific outgoing packet lengths"
attr unit b
vector 102 ModbusTest1.operatorStation.eth[0].phyLayer.phyHeaderInserter flowOutgoingDataRate:vector ETV
attr interpolationmode linear
attr recordingmode vector
attr source "throughput(demuxFlow(merge(packetPushedOut, packetPulledOut)))"
attr title "flow specific outgoing data rate"
attr unit bps
vector 103 ModbusTest1.operatorStation.eth[0].phyLayer.interFrameGapInserter interpacketGap:vector ETV
attr interpolationmode sample-hold
attr recordingmode vector
attr source "count(interpacketGapStarted) - count(interpacketGapEnded)"
attr title "interpacket gap state"
attr type int
vector 104 ModbusTest1.operatorStation.eth[0].phyLayer.outboundEmitter incomingPacketLengths:vector ETV
attr interpolationmode none
attr recordingmode vector
attr source "packetLength(merge(packetPushedIn, packetPulledIn))"
attr title "incoming packet lengths"
attr unit b
vector 105 ModbusTest1.operatorStation.eth[0].phyLayer.outboundEmitter incomingDataRate:vector ETV
attr interpolationmode linear
attr recordingmode vector
attr source "throughput(merge(packetPushedIn, packetPulledIn))"
attr title "incoming data rate"
attr unit bps
vector 106 ModbusTest1.operatorStation.eth[0].phyLayer.outboundEmitter outgoingPacketLengths:vector ETV
attr interpolationmode none
attr recordingmode vector
attr source "packetLength(merge(packetPushedOut, packetPulledOut))"
attr title "outgoing packet lengths"
attr unit b
vector 107 ModbusTest1.operatorStation.eth[0].phyLayer.outboundEmitter outgoingDataRate:vector ETV
attr interpolationmode linear
attr recordingmode vector
attr source "throughput(merge(packetPushedOut, packetPulledOut))"
attr title "outgoing data rate"
attr unit bps
vector 108 ModbusTest1.operatorStation.eth[0].phyLayer.outboundEmitter flowIncomingPacketLengths:vector ETV
attr interpolationmode none
attr recordingmode vector
attr source "packetLength(demuxFlow(merge(packetPushedIn, packetPulledIn)))"
attr title "flow specific incoming packet lengths"
attr unit b
vector 109 ModbusTest1.operatorStation.eth[0].phyLayer.outboundEmitter flowIncomingDataRate:vector ETV
attr interpolationmode linear
attr recordingmode vector
attr source "throughput(demuxFlow(merge(packetPushedIn, packetPulledIn)))"
attr title "flow specific incoming data rate"
attr unit bps
vector 110 ModbusTest1.operatorStation.eth[0].phyLayer.outboundEmitter flowOutgoingPacketLengths:vector ETV
attr interpolationmode none
attr recordingmode vector
attr source "packetLength(demuxFlow(merge(packetPushedOut, packetPulledOut)))"
attr title "flow specific outgoing packet lengths"
attr unit b
vector 111 ModbusTest1.operatorStation.eth[0].phyLayer.outboundEmitter flowOutgoingDataRate:vector ETV
attr interpolationmode linear
attr recordingmode vector
attr source "throughput(demuxFlow(merge(packetPushedOut, packetPulledOut)))"
attr title "flow specific outgoing data rate"
attr unit bps
vector 112 ModbusTest1.operatorStation.eth[0].phyLayer.transmitter transmitting:vector ETV
attr interpolationmode sample-hold
attr recordingmode vector
attr source "count(transmissionStarted) - count(transmissionEnded)"
attr title "transmitting state"
attr type int
vector 113 ModbusTest1.operatorStation.eth[0].phyLayer.transmitter throughput:vector ETV
attr interpolationmode linear
attr recordingmode vector
attr source throughput(transmissionEnded)
attr title throughput
attr unit bps
vector 114 ModbusTest1.operatorStation.eth[0].phyLayer.transmitter utilization:vector ETV
attr interpolationmode linear
attr recordingmode vector
attr source "100 * utilization(count(transmissionStarted) - count(transmissionEnded))"
attr title utilization
attr unit %
vector 115 ModbusTest1.operatorStation.eth[0].phyLayer.transmitter transmissionTime:vector ETV
attr interpolationmode none
attr recordingmode vector
attr source packetDuration(transmissionEnded)
attr title "transmission time"
attr unit s
vector 116 ModbusTest1.operatorStation.eth[0].phyLayer.transmitter flowTransmissionTime:vector ETV
attr interpolationmode none
attr recordingmode vector
attr source packetDuration(demuxFlow(transmissionEnded))
attr title "flow transmission time"
attr unit s
vector 117 ModbusTest1.operatorStation.eth[0].phyLayer.phyHeaderChecker incomingPacketLengths:vector ETV
attr interpolationmode none
attr recordingmode vector
attr source "packetLength(merge(packetPushedIn, packetPulledIn))"
attr title "incoming packet lengths"
attr unit b
vector 118 ModbusTest1.operatorStation.eth[0].phyLayer.phyHeaderChecker incomingDataRate:vector ETV
attr interpolationmode linear
attr recordingmode vector
attr source "throughput(merge(packetPushedIn, packetPulledIn))"
attr title "incoming data rate"
attr unit bps
vector 119 ModbusTest1.operatorStation.eth[0].phyLayer.phyHeaderChecker outgoingPacketLengths:vector ETV
attr interpolationmode none
attr recordingmode vector
attr source "packetLength(merge(packetPushedOut, packetPulledOut))"
attr title "outgoing packet lengths"
attr unit b
vector 120 ModbusTest1.operatorStation.eth[0].phyLayer.phyHeaderChecker outgoingDataRate:vector ETV
attr interpolationmode linear
attr recordingmode vector
attr source "throughput(merge(packetPushedOut, packetPulledOut))"
attr title "outgoing data rate"
attr unit bps
vector 121 ModbusTest1.operatorStation.eth[0].phyLayer.phyHeaderChecker droppedPacketLengths:vector ETV
attr interpolationmode none
attr recordingmode vector
attr source packetLength(packetDropped)
attr title "dropped packet lengths"
attr unit b
vector 122 ModbusTest1.operatorStation.eth[0].phyLayer.phyHeaderChecker droppedDataRate:vector ETV
attr interpolationmode linear
attr recordingmode vector
attr source throughput(packetDropped)
attr title "dropped data rate"
attr unit bps
vector 123 ModbusTest1.operatorStation.eth[0].phyLayer.phyHeaderChecker flowIncomingPacketLengths:vector ETV
attr interpolationmode none
attr recordingmode vector
attr source "packetLength(demuxFlow(merge(packetPushedIn, packetPulledIn)))"
attr title "flow specific incoming packet lengths"
attr unit b
vector 124 ModbusTest1.operatorStation.eth[0].phyLayer.phyHeaderChecker flowIncomingDataRate:vector ETV
attr interpolationmode linear
attr recordingmode vector
attr source "throughput(demuxFlow(merge(packetPushedIn, packetPulledIn)))"
attr title "flow specific incoming data rate"
attr unit bps
vector 125 ModbusTest1.operatorStation.eth[0].phyLayer.phyHeaderChecker flowOutgoingPacketLengths:vector ETV
attr interpolationmode none
attr recordingmode vector
attr source "packetLength(demuxFlow(merge(packetPushedOut, packetPulledOut)))"
attr title "flow specific outgoing packet lengths"
attr unit b
vector 126 ModbusTest1.operatorStation.eth[0].phyLayer.phyHeaderChecker flowOutgoingDataRate:vector ETV
attr interpolationmode linear
attr recordingmode vector
attr source "throughput(demuxFlow(merge(packetPushedOut, packetPulledOut)))"
attr title "flow specific outgoing data rate"
attr unit bps
vector 127 ModbusTest1.operatorStation.eth[0].phyLayer.phyHeaderChecker flowDroppedPacketLengths:vector ETV
attr interpolationmode none
attr recordingmode vector
attr source packetLength(demuxFlow(packetDropped))
attr title "flow specific dropped packet lengths"
attr unit b
vector 128 ModbusTest1.operatorStation.eth[0].phyLayer.phyHeaderChecker flowDroppedDataRate:vector ETV
attr interpolationmode linear
attr recordingmode vector
attr source throughput(demuxFlow(packetDropped))
attr title "flow specific dropped data rate"
attr unit bps
vector 129 ModbusTest1.operatorStation.eth[0].phyLayer.inboundEmitter incomingPacketLengths:vector ETV
attr interpolationmode none
attr recordingmode vector
attr source "packetLength(merge(packetPushedIn, packetPulledIn))"
attr title "incoming packet lengths"
attr unit b
vector 130 ModbusTest1.operatorStation.eth[0].phyLayer.inboundEmitter incomingDataRate:vector ETV
attr interpolationmode linear
attr recordingmode vector
attr source "throughput(merge(packetPushedIn, packetPulledIn))"
attr title "incoming data rate"
attr unit bps
vector 131 ModbusTest1.operatorStation.eth[0].phyLayer.inboundEmitter outgoingPacketLengths:vector ETV
attr interpolationmode none
attr recordingmode vector
attr source "packetLength(merge(packetPushedOut, packetPulledOut))"
attr title "outgoing packet lengths"
attr unit b
vector 132 ModbusTest1.operatorStation.eth[0].phyLayer.inboundEmitter outgoingDataRate:vector ETV
attr interpolationmode linear
attr recordingmode vector
attr source "throughput(merge(packetPushedOut, packetPulledOut))"
attr title "outgoing data rate"
attr unit bps
vector 133 ModbusTest1.operatorStation.eth[0].phyLayer.inboundEmitter flowIncomingPacketLengths:vector ETV
attr interpolationmode none
attr recordingmode vector
attr source "packetLength(demuxFlow(merge(packetPushedIn, packetPulledIn)))"
attr title "flow specific incoming packet lengths"
attr unit b
vector 134 ModbusTest1.operatorStation.eth[0].phyLayer.inboundEmitter flowIncomingDataRate:vector ETV
attr interpolationmode linear
attr recordingmode vector
attr source "throughput(demuxFlow(merge(packetPushedIn, packetPulledIn)))"
attr title "flow specific incoming data rate"
attr unit bps
vector 135 ModbusTest1.operatorStation.eth[0].phyLayer.inboundEmitter flowOutgoingPacketLengths:vector ETV
attr interpolationmode none
attr recordingmode vector
attr source "packetLength(demuxFlow(merge(packetPushedOut, packetPulledOut)))"
attr title "flow specific outgoing packet lengths"
attr unit b
vector 136 ModbusTest1.operatorStation.eth[0].phyLayer.inboundEmitter flowOutgoingDataRate:vector ETV
attr interpolationmode linear
attr recordingmode vector
attr source "throughput(demuxFlow(merge(packetPushedOut, packetPulledOut)))"
attr title "flow specific outgoing data rate"
attr unit bps
vector 137 ModbusTest1.operatorStation.eth[0].phyLayer.receiver throughput:vector ETV
attr interpolationmode linear
attr recordingmode vector
attr source throughput(receptionEnded)
attr title throughput
attr unit bps
vector 138 ModbusTest1.operatorStation.eth[0].phyLayer.receiver receptionTime:vector ETV
attr interpolationmode none
attr recordingmode vector
attr source packetDuration(receptionEnded)
attr title "reception time"
attr unit s
vector 139 ModbusTest1.operatorStation.eth[0].phyLayer.receiver flowReceptionTime:vector ETV
attr interpolationmode none
attr recordingmode vector
attr source packetDuration(demuxFlow(receptionEnded))
attr title "flow reception time"
attr unit s
vector 140 ModbusTest1.operatorStation.eth[0] packetDropInterfaceDown:vector(packetBytes) ETV
attr interpolationmode none
attr recordingmode vector(packetBytes)
attr source packetDropReasonIsInterfaceDown(packetDropped)
attr title "packet drops: interface down, packetBytes"
vector 141 ModbusTest1.operatorStation.eth[0] packetDropNoCarrier:vector(packetBytes) ETV
attr interpolationmode none
attr recordingmode vector(packetBytes)
attr source packetDropReasonIsNoCarrier(packetDropped)
attr title "packet drops: no carrier, packetBytes"
vector 142 ModbusTest1.operatorStation.eth[1].macLayer.queue queueLength:vector ETV
attr autoWarmupFilter false
attr interpolationmode sample-hold
attr recordingmode vector
attr source "warmup(atomic(constant0(packetPushEnded) + count(packetPushStarted) - count(packetPulled) - count(packetRemoved) - count(packetDropped)))"
attr title "queue length"
attr unit pk
vector 143 ModbusTest1.operatorStation.eth[1].macLayer.queue queueBitLength:vector ETV
attr autoWarmupFilter false
attr interpolationmode sample-hold
attr recordingmode vector
attr source "warmup(atomic(constant0(packetPushEnded) + sum(packetLength(packetPushStarted)) - sum(packetLength(packetPulled)) - sum(packetLength(packetRemoved)) - sum(packetLength(packetDropped))))"
attr title "queue bit length"
attr unit b
vector 144 ModbusTest1.operatorStation.eth[1].macLayer.queue queueingTime:vector ETV
attr interpolationmode none
attr recordingmode vector
attr source queueingTime(packetPulled)
attr title "queueing times"
attr unit s
vector 145 ModbusTest1.operatorStation.eth[1].macLayer.queue incomingPacketLengths:vector ETV
attr interpolationmode none
attr recordingmode vector
attr source packetLength(packetPushStarted)
attr title "incoming packet lengths"
attr unit b
vector 146 ModbusTest1.operatorStation.eth[1].macLayer.queue incomingDataRate:vector ETV
attr interpolationmode linear
attr recordingmode vector
attr source throughput(packetPushStarted)
attr title "incoming datarate"
attr unit bps
vector 147 ModbusTest1.operatorStation.eth[1].macLayer.queue outgoingPacketLengths:vector ETV
attr interpolationmode none
attr recordingmode vector
attr source packetLength(packetPulled)
attr title "outgoing packet lengths"
attr unit b
vector 148 ModbusTest1.operatorStation.eth[1].macLayer.queue outgoingDataRate:vector ETV
attr interpolationmode linear
attr recordingmode vector
attr source throughput(packetPulled)
attr title "outgoing datarate"
attr unit bps
vector 149 ModbusTest1.operatorStation.eth[1].macLayer.queue droppedPacketLengthsQueueOverflow:vector ETV
attr interpolationmode none
attr recordingmode vector
attr source packetLength(packetDropReasonIsQueueOverflow(packetDropped))
attr title "dropped packet lengths: queue overflow"
attr unit b
vector 150 ModbusTest1.operatorStation.eth[1].macLayer.queue flowQueueingTime:vector ETV
attr interpolationmode none
attr recordingmode vector
attr source queueingTime(demuxFlow(packetPulled))
attr title "flow queueing times"
attr unit s
vector 151 ModbusTest1.operatorStation.eth[1].macLayer.queue flowIncomingDataRate:vector ETV
attr interpolationmode linear
attr recordingmode vector
attr source throughput(flowPacketLength(demuxFlow(packetPushStarted)))
attr title "flow specific incoming data rate"
attr unit bps
vector 152 ModbusTest1.operatorStation.eth[1].macLayer.queue flowOutgoingDataRate:vector ETV
attr interpolationmode linear
attr recordingmode vector
attr source throughput(flowPacketLength(demuxFlow(packetPulled)))
attr title "flow specific outgoing data rate"
attr unit bps
vector 153 ModbusTest1.operatorStation.eth[1].macLayer.server incomingPacketLengths:vector ETV
attr interpolationmode none
attr recordingmode vector
attr source packetLength(packetPulled)
attr title "incoming packet lengths"
attr unit b
vector 154 ModbusTest1.operatorStation.eth[1].macLayer.server incomingDataRate:vector ETV
attr interpolationmode linear
attr recordingmode vector
attr source throughput(packetPulled)
attr title "incoming datarate"
attr unit bps
vector 155 ModbusTest1.operatorStation.eth[1].macLayer.server outgoingPacketLengths:vector ETV
attr interpolationmode none
attr recordingmode vector
attr source packetLength(packetPushed)
attr title "outgoing packet lengths"
attr unit b
vector 156 ModbusTest1.operatorStation.eth[1].macLayer.server outgoingDataRate:vector ETV
attr interpolationmode linear
attr recordingmode vector
attr source throughput(packetPushed)
attr title "outgoing datarate"
attr unit bps
vector 157 ModbusTest1.operatorStation.eth[1].macLayer.outboundEmitter incomingPacketLengths:vector ETV
attr interpolationmode none
attr recordingmode vector
attr source "packetLength(merge(packetPushedIn, packetPulledIn))"
attr title "incoming packet lengths"
attr unit b
vector 158 ModbusTest1.operatorStation.eth[1].macLayer.outboundEmitter incomingDataRate:vector ETV
attr interpolationmode linear
attr recordingmode vector
attr source "throughput(merge(packetPushedIn, packetPulledIn))"
attr title "incoming data rate"
attr unit bps
vector 159 ModbusTest1.operatorStation.eth[1].macLayer.outboundEmitter outgoingPacketLengths:vector ETV
attr interpolationmode none
attr recordingmode vector
attr source "packetLength(merge(packetPushedOut, packetPulledOut))"
attr title "outgoing packet lengths"
attr unit b
vector 160 ModbusTest1.operatorStation.eth[1].macLayer.outboundEmitter outgoingDataRate:vector ETV
attr interpolationmode linear
attr recordingmode vector
attr source "throughput(merge(packetPushedOut, packetPulledOut))"
attr title "outgoing data rate"
attr unit bps
vector 161 ModbusTest1.operatorStation.eth[1].macLayer.outboundEmitter flowIncomingPacketLengths:vector ETV
attr interpolationmode none
attr recordingmode vector
attr source "packetLength(demuxFlow(merge(packetPushedIn, packetPulledIn)))"
attr title "flow specific incoming packet lengths"
attr unit b
vector 162 ModbusTest1.operatorStation.eth[1].macLayer.outboundEmitter flowIncomingDataRate:vector ETV
attr interpolationmode linear
attr recordingmode vector
attr source "throughput(demuxFlow(merge(packetPushedIn, packetPulledIn)))"
attr title "flow specific incoming data rate"
attr unit bps
vector 163 ModbusTest1.operatorStation.eth[1].macLayer.outboundEmitter flowOutgoingPacketLengths:vector ETV
attr interpolationmode none
attr recordingmode vector
attr source "packetLength(demuxFlow(merge(packetPushedOut, packetPulledOut)))"
attr title "flow specific outgoing packet lengths"
attr unit b
vector 164 ModbusTest1.operatorStation.eth[1].macLayer.outboundEmitter flowOutgoingDataRate:vector ETV
attr interpolationmode linear
attr recordingmode vector
attr source "throughput(demuxFlow(merge(packetPushedOut, packetPulledOut)))"
attr title "flow specific outgoing data rate"
attr unit bps
vector 165 ModbusTest1.operatorStation.eth[1].macLayer.fcsChecker incomingPacketLengths:vector ETV
attr interpolationmode none
attr recordingmode vector
attr source "packetLength(merge(packetPushedIn, packetPulledIn))"
attr title "incoming packet lengths"
attr unit b
vector 166 ModbusTest1.operatorStation.eth[1].macLayer.fcsChecker incomingDataRate:vector ETV
attr interpolationmode linear
attr recordingmode vector
attr source "throughput(merge(packetPushedIn, packetPulledIn))"
attr title "incoming data rate"
attr unit bps
vector 167 ModbusTest1.operatorStation.eth[1].macLayer.fcsChecker outgoingPacketLengths:vector ETV
attr interpolationmode none
attr recordingmode vector
attr source "packetLength(merge(packetPushedOut, packetPulledOut))"
attr title "outgoing packet lengths"
attr unit b
vector 168 ModbusTest1.operatorStation.eth[1].macLayer.fcsChecker outgoingDataRate:vector ETV
attr interpolationmode linear
attr recordingmode vector
attr source "throughput(merge(packetPushedOut, packetPulledOut))"
attr title "outgoing data rate"
attr unit bps
vector 169 ModbusTest1.operatorStation.eth[1].macLayer.fcsChecker droppedPacketLengths:vector ETV
attr interpolationmode none
attr recordingmode vector
attr source packetLength(packetDropped)
attr title "dropped packet lengths"
attr unit b
vector 170 ModbusTest1.operatorStation.eth[1].macLayer.fcsChecker droppedDataRate:vector ETV
attr interpolationmode linear
attr recordingmode vector
attr source throughput(packetDropped)
attr title "dropped data rate"
attr unit bps
vector 171 ModbusTest1.operatorStation.eth[1].macLayer.fcsChecker flowIncomingPacketLengths:vector ETV
attr interpolationmode none
attr recordingmode vector
attr source "packetLength(demuxFlow(merge(packetPushedIn, packetPulledIn)))"
attr title "flow specific incoming packet lengths"
attr unit b
vector 172 ModbusTest1.operatorStation.eth[1].macLayer.fcsChecker flowIncomingDataRate:vector ETV
attr interpolationmode linear
attr recordingmode vector
attr source "throughput(demuxFlow(merge(packetPushedIn, packetPulledIn)))"
attr title "flow specific incoming data rate"
attr unit bps
vector 173 ModbusTest1.operatorStation.eth[1].macLayer.fcsChecker flowOutgoingPacketLengths:vector ETV
attr interpolationmode none
attr recordingmode vector
attr source "packetLength(demuxFlow(merge(packetPushedOut, packetPulledOut)))"
attr title "flow specific outgoing packet lengths"
attr unit b
vector 174 ModbusTest1.operatorStation.eth[1].macLayer.fcsChecker flowOutgoingDataRate:vector ETV
attr interpolationmode linear
attr recordingmode vector
attr source "throughput(demuxFlow(merge(packetPushedOut, packetPulledOut)))"
attr title "flow specific outgoing data rate"
attr unit bps
vector 175 ModbusTest1.operatorStation.eth[1].macLayer.fcsChecker flowDroppedPacketLengths:vector ETV
attr interpolationmode none
attr recordingmode vector
attr source packetLength(demuxFlow(packetDropped))
attr title "flow specific dropped packet lengths"
attr unit b
vector 176 ModbusTest1.operatorStation.eth[1].macLayer.fcsChecker flowDroppedDataRate:vector ETV
attr interpolationmode linear
attr recordingmode vector
attr source throughput(demuxFlow(packetDropped))
attr title "flow specific dropped data rate"
attr unit bps
vector 177 ModbusTest1.operatorStation.eth[1].macLayer.inboundEmitter incomingPacketLengths:vector ETV
attr interpolationmode none
attr recordingmode vector
attr source "packetLength(merge(packetPushedIn, packetPulledIn))"
attr title "incoming packet lengths"
attr unit b
vector 178 ModbusTest1.operatorStation.eth[1].macLayer.inboundEmitter incomingDataRate:vector ETV
attr interpolationmode linear
attr recordingmode vector
attr source "throughput(merge(packetPushedIn, packetPulledIn))"
attr title "incoming data rate"
attr unit bps
vector 179 ModbusTest1.operatorStation.eth[1].macLayer.inboundEmitter outgoingPacketLengths:vector ETV
attr interpolationmode none
attr recordingmode vector
attr source "packetLength(merge(packetPushedOut, packetPulledOut))"
attr title "outgoing packet lengths"
attr unit b
vector 180 ModbusTest1.operatorStation.eth[1].macLayer.inboundEmitter outgoingDataRate:vector ETV
attr interpolationmode linear
attr recordingmode vector
attr source "throughput(merge(packetPushedOut, packetPulledOut))"
attr title "outgoing data rate"
attr unit bps
vector 181 ModbusTest1.operatorStation.eth[1].macLayer.inboundEmitter flowIncomingPacketLengths:vector ETV
attr interpolationmode none
attr recordingmode vector
attr source "packetLength(demuxFlow(merge(packetPushedIn, packetPulledIn)))"
attr title "flow specific incoming packet lengths"
attr unit b
vector 182 ModbusTest1.operatorStation.eth[1].macLayer.inboundEmitter flowIncomingDataRate:vector ETV
attr interpolationmode linear
attr recordingmode vector
attr source "throughput(demuxFlow(merge(packetPushedIn, packetPulledIn)))"
attr title "flow specific incoming data rate"
attr unit bps
vector 183 ModbusTest1.operatorStation.eth[1].macLayer.inboundEmitter flowOutgoingPacketLengths:vector ETV
attr interpolationmode none
attr recordingmode vector
attr source "packetLength(demuxFlow(merge(packetPushedOut, packetPulledOut)))"
attr title "flow specific outgoing packet lengths"
attr unit b
vector 184 ModbusTest1.operatorStation.eth[1].macLayer.inboundEmitter flowOutgoingDataRate:vector ETV
attr interpolationmode linear
attr recordingmode vector
attr source "throughput(demuxFlow(merge(packetPushedOut, packetPulledOut)))"
attr title "flow specific outgoing data rate"
attr unit bps
vector 185 ModbusTest1.operatorStation.eth[1].phyLayer.phyHeaderInserter incomingPacketLengths:vector ETV
attr interpolationmode none
attr recordingmode vector
attr source "packetLength(merge(packetPushedIn, packetPulledIn))"
attr title "incoming packet lengths"
attr unit b
vector 186 ModbusTest1.operatorStation.eth[1].phyLayer.phyHeaderInserter incomingDataRate:vector ETV
attr interpolationmode linear
attr recordingmode vector
attr source "throughput(merge(packetPushedIn, packetPulledIn))"
attr title "incoming data rate"
attr unit bps
vector 187 ModbusTest1.operatorStation.eth[1].phyLayer.phyHeaderInserter outgoingPacketLengths:vector ETV
attr interpolationmode none
attr recordingmode vector
attr source "packetLength(merge(packetPushedOut, packetPulledOut))"
attr title "outgoing packet lengths"
attr unit b
vector 188 ModbusTest1.operatorStation.eth[1].phyLayer.phyHeaderInserter outgoingDataRate:vector ETV
attr interpolationmode linear
attr recordingmode vector
attr source "throughput(merge(packetPushedOut, packetPulledOut))"
attr title "outgoing data rate"
attr unit bps
vector 189 ModbusTest1.operatorStation.eth[1].phyLayer.phyHeaderInserter flowIncomingPacketLengths:vector ETV
attr interpolationmode none
attr recordingmode vector
attr source "packetLength(demuxFlow(merge(packetPushedIn, packetPulledIn)))"
attr title "flow specific incoming packet lengths"
attr unit b
vector 190 ModbusTest1.operatorStation.eth[1].phyLayer.phyHeaderInserter flowIncomingDataRate:vector ETV
attr interpolationmode linear
attr recordingmode vector
attr source "throughput(demuxFlow(merge(packetPushedIn, packetPulledIn)))"
attr title "flow specific incoming data rate"
attr unit bps
vector 191 ModbusTest1.operatorStation.eth[1].phyLayer.phyHeaderInserter flowOutgoingPacketLengths:vector ETV
attr interpolationmode none
attr recordingmode vector
attr source "packetLength(demuxFlow(merge(packetPushedOut, packetPulledOut)))"
attr title "flow specific outgoing packet lengths"
attr unit b
vector 192 ModbusTest1.operatorStation.eth[1].phyLayer.phyHeaderInserter flowOutgoingDataRate:vector ETV
attr interpolationmode linear
attr recordingmode vector
attr source "throughput(demuxFlow(merge(packetPushedOut, packetPulledOut)))"
attr title "flow specific outgoing data rate"
attr unit bps
vector 193 ModbusTest1.operatorStation.eth[1].phyLayer.interFrameGapInserter interpacketGap:vector ETV
attr interpolationmode sample-hold
attr recordingmode vector
attr source "count(interpacketGapStarted) - count(interpacketGapEnded)"
attr title "interpacket gap state"
attr type int
vector 194 ModbusTest1.operatorStation.eth[1].phyLayer.outboundEmitter incomingPacketLengths:vector ETV
attr interpolationmode none
attr recordingmode vector
attr source "packetLength(merge(packetPushedIn, packetPulledIn))"
attr title "incoming packet lengths"
attr unit b
vector 195 ModbusTest1.operatorStation.eth[1].phyLayer.outboundEmitter incomingDataRate:vector ETV
attr interpolationmode linear
attr recordingmode vector
attr source "throughput(merge(packetPushedIn, packetPulledIn))"
attr title "incoming data rate"
attr unit bps
vector 196 ModbusTest1.operatorStation.eth[1].phyLayer.outboundEmitter outgoingPacketLengths:vector ETV
attr interpolationmode none
attr recordingmode vector
attr source "packetLength(merge(packetPushedOut, packetPulledOut))"
attr title "outgoing packet lengths"
attr unit b
vector 197 ModbusTest1.operatorStation.eth[1].phyLayer.outboundEmitter outgoingDataRate:vector ETV
attr interpolationmode linear
attr recordingmode vector
attr source "throughput(merge(packetPushedOut, packetPulledOut))"
attr title "outgoing data rate"
attr unit bps
vector 198 ModbusTest1.operatorStation.eth[1].phyLayer.outboundEmitter flowIncomingPacketLengths:vector ETV
attr interpolationmode none
attr recordingmode vector
attr source "packetLength(demuxFlow(merge(packetPushedIn, packetPulledIn)))"
attr title "flow specific incoming packet lengths"
attr unit b
vector 199 ModbusTest1.operatorStation.eth[1].phyLayer.outboundEmitter flowIncomingDataRate:vector ETV
attr interpolationmode linear
attr recordingmode vector
attr source "throughput(demuxFlow(merge(packetPushedIn, packetPulledIn)))"
attr title "flow specific incoming data rate"
attr unit bps
vector 200 ModbusTest1.operatorStation.eth[1].phyLayer.outboundEmitter flowOutgoingPacketLengths:vector ETV
attr interpolationmode none
attr recordingmode vector
attr source "packetLength(demuxFlow(merge(packetPushedOut, packetPulledOut)))"
attr title "flow specific outgoing packet lengths"
attr unit b
vector 201 ModbusTest1.operatorStation.eth[1].phyLayer.outboundEmitter flowOutgoingDataRate:vector ETV
attr interpolationmode linear
attr recordingmode vector
attr source "throughput(demuxFlow(merge(packetPushedOut, packetPulledOut)))"
attr title "flow specific outgoing data rate"
attr unit bps
vector 202 ModbusTest1.operatorStation.eth[1].phyLayer.transmitter transmitting:vector ETV
attr interpolationmode sample-hold
attr recordingmode vector
attr source "count(transmissionStarted) - count(transmissionEnded)"
attr title "transmitting state"
attr type int
vector 203 ModbusTest1.operatorStation.eth[1].phyLayer.transmitter throughput:vector ETV
attr interpolationmode linear
attr recordingmode vector
attr source throughput(transmissionEnded)
attr title throughput
attr unit bps
vector 204 ModbusTest1.operatorStation.eth[1].phyLayer.transmitter utilization:vector ETV
attr interpolationmode linear
attr recordingmode vector
attr source "100 * utilization(count(transmissionStarted) - count(transmissionEnded))"
attr title utilization
attr unit %
vector 205 ModbusTest1.operatorStation.eth[1].phyLayer.transmitter transmissionTime:vector ETV
attr interpolationmode none
attr recordingmode vector
attr source packetDuration(transmissionEnded)
attr title "transmission time"
attr unit s
vector 206 ModbusTest1.operatorStation.eth[1].phyLayer.transmitter flowTransmissionTime:vector ETV
attr interpolationmode none
attr recordingmode vector
attr source packetDuration(demuxFlow(transmissionEnded))
attr title "flow transmission time"
attr unit s
vector 207 ModbusTest1.operatorStation.eth[1].phyLayer.phyHeaderChecker incomingPacketLengths:vector ETV
attr interpolationmode none
attr recordingmode vector
attr source "packetLength(merge(packetPushedIn, packetPulledIn))"
attr title "incoming packet lengths"
attr unit b
vector 208 ModbusTest1.operatorStation.eth[1].phyLayer.phyHeaderChecker incomingDataRate:vector ETV
attr interpolationmode linear
attr recordingmode vector
attr source "throughput(merge(packetPushedIn, packetPulledIn))"
attr title "incoming data rate"
attr unit bps
vector 209 ModbusTest1.operatorStation.eth[1].phyLayer.phyHeaderChecker outgoingPacketLengths:vector ETV
attr interpolationmode none
attr recordingmode vector
attr source "packetLength(merge(packetPushedOut, packetPulledOut))"
attr title "outgoing packet lengths"
attr unit b
vector 210 ModbusTest1.operatorStation.eth[1].phyLayer.phyHeaderChecker outgoingDataRate:vector ETV
attr interpolationmode linear
attr recordingmode vector
attr source "throughput(merge(packetPushedOut, packetPulledOut))"
attr title "outgoing data rate"
attr unit bps
vector 211 ModbusTest1.operatorStation.eth[1].phyLayer.phyHeaderChecker droppedPacketLengths:vector ETV
attr interpolationmode none
attr recordingmode vector
attr source packetLength(packetDropped)
attr title "dropped packet lengths"
attr unit b
vector 212 ModbusTest1.operatorStation.eth[1].phyLayer.phyHeaderChecker droppedDataRate:vector ETV
attr interpolationmode linear
attr recordingmode vector
attr source throughput(packetDropped)
attr title "dropped data rate"
attr unit bps
vector 213 ModbusTest1.operatorStation.eth[1].phyLayer.phyHeaderChecker flowIncomingPacketLengths:vector ETV
attr interpolationmode none
attr recordingmode vector
attr source "packetLength(demuxFlow(merge(packetPushedIn, packetPulledIn)))"
attr title "flow specific incoming packet lengths"
attr unit b
vector 214 ModbusTest1.operatorStation.eth[1].phyLayer.phyHeaderChecker flowIncomingDataRate:vector ETV
attr interpolationmode linear
attr recordingmode vector
attr source "throughput(demuxFlow(merge(packetPushedIn, packetPulledIn)))"
attr title "flow specific incoming data rate"
attr unit bps
vector 215 ModbusTest1.operatorStation.eth[1].phyLayer.phyHeaderChecker flowOutgoingPacketLengths:vector ETV
attr interpolationmode none
attr recordingmode vector
attr source "packetLength(demuxFlow(merge(packetPushedOut, packetPulledOut)))"
attr title "flow specific outgoing packet lengths"
attr unit b
vector 216 ModbusTest1.operatorStation.eth[1].phyLayer.phyHeaderChecker flowOutgoingDataRate:vector ETV
attr interpolationmode linear
attr recordingmode vector
attr source "throughput(demuxFlow(merge(packetPushedOut, packetPulledOut)))"
attr title "flow specific outgoing data rate"
attr unit bps
vector 217 ModbusTest1.operatorStation.eth[1].phyLayer.phyHeaderChecker flowDroppedPacketLengths:vector ETV
attr interpolationmode none
attr recordingmode vector
attr source packetLength(demuxFlow(packetDropped))
attr title "flow specific dropped packet lengths"
attr unit b
vector 218 ModbusTest1.operatorStation.eth[1].phyLayer.phyHeaderChecker flowDroppedDataRate:vector ETV
attr interpolationmode linear
attr recordingmode vector
attr source throughput(demuxFlow(packetDropped))
attr title "flow specific dropped data rate"
attr unit bps
vector 219 ModbusTest1.operatorStation.eth[1].phyLayer.inboundEmitter incomingPacketLengths:vector ETV
attr interpolationmode none
attr recordingmode vector
attr source "packetLength(merge(packetPushedIn, packetPulledIn))"
attr title "incoming packet lengths"
attr unit b
vector 220 ModbusTest1.operatorStation.eth[1].phyLayer.inboundEmitter incomingDataRate:vector ETV
attr interpolationmode linear
attr recordingmode vector
attr source "throughput(merge(packetPushedIn, packetPulledIn))"
attr title "incoming data rate"
attr unit bps
vector 221 ModbusTest1.operatorStation.eth[1].phyLayer.inboundEmitter outgoingPacketLengths:vector ETV
attr interpolationmode none
attr recordingmode vector
attr source "packetLength(merge(packetPushedOut, packetPulledOut))"
attr title "outgoing packet lengths"
attr unit b
vector 222 ModbusTest1.operatorStation.eth[1].phyLayer.inboundEmitter outgoingDataRate:vector ETV
attr interpolationmode linear
attr recordingmode vector
attr source "throughput(merge(packetPushedOut, packetPulledOut))"
attr title "outgoing data rate"
attr unit bps
vector 223 ModbusTest1.operatorStation.eth[1].phyLayer.inboundEmitter flowIncomingPacketLengths:vector ETV
attr interpolationmode none
attr recordingmode vector
attr source "packetLength(demuxFlow(merge(packetPushedIn, packetPulledIn)))"
attr title "flow specific incoming packet lengths"
attr unit b
vector 224 ModbusTest1.operatorStation.eth[1].phyLayer.inboundEmitter flowIncomingDataRate:vector ETV
attr interpolationmode linear
attr recordingmode vector
attr source "throughput(demuxFlow(merge(packetPushedIn, packetPulledIn)))"
attr title "flow specific incoming data rate"
attr unit bps
vector 225 ModbusTest1.operatorStation.eth[1].phyLayer.inboundEmitter flowOutgoingPacketLengths:vector ETV
attr interpolationmode none
attr recordingmode vector
attr source "packetLength(demuxFlow(merge(packetPushedOut, packetPulledOut)))"
attr title "flow specific outgoing packet lengths"
attr unit b
vector 226 ModbusTest1.operatorStation.eth[1].phyLayer.inboundEmitter flowOutgoingDataRate:vector ETV
attr interpolationmode linear
attr recordingmode vector
attr source "throughput(demuxFlow(merge(packetPushedOut, packetPulledOut)))"
attr title "flow specific outgoing data rate"
attr unit bps
vector 227 ModbusTest1.operatorStation.eth[1].phyLayer.receiver throughput:vector ETV
attr interpolationmode linear
attr recordingmode vector
attr source throughput(receptionEnded)
attr title throughput
attr unit bps
vector 228 ModbusTest1.operatorStation.eth[1].phyLayer.receiver receptionTime:vector ETV
attr interpolationmode none
attr recordingmode vector
attr source packetDuration(receptionEnded)
attr title "reception time"
attr unit s
vector 229 ModbusTest1.operatorStation.eth[1].phyLayer.receiver flowReceptionTime:vector ETV
attr interpolationmode none
attr recordingmode vector
attr source packetDuration(demuxFlow(receptionEnded))
attr title "flow reception time"
attr unit s
vector 230 ModbusTest1.operatorStation.eth[1] packetDropInterfaceDown:vector(packetBytes) ETV
attr interpolationmode none
attr recordingmode vector(packetBytes)
attr source packetDropReasonIsInterfaceDown(packetDropped)
attr title "packet drops: interface down, packetBytes"
vector 231 ModbusTest1.operatorStation.eth[1] packetDropNoCarrier:vector(packetBytes) ETV
attr interpolationmode none
attr recordingmode vector(packetBytes)
attr source packetDropReasonIsNoCarrier(packetDropped)
attr title "packet drops: no carrier, packetBytes"
vector 232 ModbusTest1.operatorStation.ipv4.ip packetDropAddressResolutionFailed:vector(packetBytes) ETV
attr interpolationmode none
attr recordingmode vector(packetBytes)
attr source packetDropReasonIsAddressResolutionFailed(packetDropped)
attr title "packet drop: address resolution failed, packetBytes"
vector 233 ModbusTest1.operatorStation.ipv4.ip packetDropHopLimitReached:vector(packetBytes) ETV
attr interpolationmode none
attr recordingmode vector(packetBytes)
attr source packetDropReasonIsHopLimitReached(packetDropped)
attr title "packet drop: hop limit reached, packetBytes"
vector 234 ModbusTest1.operatorStation.ipv4.ip packetDropForwardingDisabled:vector(packetBytes) ETV
attr interpolationmode none
attr recordingmode vector(packetBytes)
attr source packetDropReasonIsForwardingDisabled(packetDropped)
attr title "packet drop: forwarding disabled, packetBytes"
vector 235 ModbusTest1.operatorStation.ipv4.ip packetDropNoInterfaceFound:vector(packetBytes) ETV
attr interpolationmode none
attr recordingmode vector(packetBytes)
attr source packetDropReasonIsNoInterfaceFound(packetDropped)
attr title "packet drop: no interface found, packetBytes"
vector 236 ModbusTest1.operatorStation.ipv4.ip packetDropNoRouteFound:vector(packetBytes) ETV
attr interpolationmode none
attr recordingmode vector(packetBytes)
attr source packetDropReasonIsNoRouteFound(packetDropped)
attr title "packet drop: no route found, packetBytes"
vector 237 ModbusTest1.operatorStation.ipv4.ip packetDropUndefined:vector(packetBytes) ETV
attr interpolationmode none
attr recordingmode vector(packetBytes)
attr source packetDropReasonIsUndefined(packetDropped)
attr title "packet drop: undefined, packetBytes"
vector 238 ModbusTest1.operatorStation.udp packetSent:vector(packetBytes) ETV
attr interpolationmode none
attr recordingmode vector(packetBytes)
attr source packetSent
attr title "packets sent, packetBytes"
vector 239 ModbusTest1.operatorStation.udp packetReceived:vector(packetBytes) ETV
attr interpolationmode none
attr recordingmode vector(packetBytes)
attr source packetReceived
attr title "packets received, packetBytes"
vector 240 ModbusTest1.operatorStation.udp passedUpPk:vector(count) ETV
attr interpolationmode none
attr recordingmode vector(count)
attr source packetSentToUpper
attr title "packets passed up, count"
vector 241 ModbusTest1.operatorStation.udp droppedPkWrongPort:vector(count) ETV
attr interpolationmode none
attr recordingmode vector(count)
attr source packetDropReasonIsNoPortFound(packetDropped)
attr title "packets dropped (wrong port), count"
vector 242 ModbusTest1.operatorStation.udp droppedPkBadChecksum:vector(count) ETV
attr interpolationmode none
attr recordingmode vector(count)
attr source packetDropReasonIsIncorrectlyReceived(packetDropped)
attr title "packets dropped (checksum error), count"
vector 243 ModbusTest1.operatorStation.app[0] packetReceived:vector(packetBytes) ETV
attr interpolationmode none
attr recordingmode vector(packetBytes)
attr source packetReceived
attr title "packets received, packetBytes"
vector 244 ModbusTest1.operatorStation.app[0] packetSent:vector(packetBytes) ETV
attr interpolationmode none
attr recordingmode vector(packetBytes)
attr source packetSent
attr title "packets sent, packetBytes"
vector 245 ModbusTest1.operatorStation.app[0] endToEndDelay:vector ETV
attr interpolationmode none
attr recordingmode vector
attr source dataAge(packetReceived)
attr title "end-to-end delay"
attr unit s
vector 246 ModbusTest1.operatorStation.app[0] numActiveSessions:vector ETV
attr autoWarmupFilter false
attr interpolationmode sample-hold
attr recordingmode vector
attr source warmup(sum(connect))
attr title "number of active sessions"
vector 247 ModbusTest1.operatorStation.app[1] packetReceived:vector(packetBytes) ETV
attr interpolationmode none
attr recordingmode vector(packetBytes)
attr source packetReceived
attr title "packets received, packetBytes"
vector 248 ModbusTest1.operatorStation.app[1] packetSent:vector(packetBytes) ETV
attr interpolationmode none
attr recordingmode vector(packetBytes)
attr source packetSent
attr title "packets sent, packetBytes"
vector 249 ModbusTest1.operatorStation.app[1] endToEndDelay:vector ETV
attr interpolationmode none
attr recordingmode vector
attr source dataAge(packetReceived)
attr title "end-to-end delay"
attr unit s
vector 250 ModbusTest1.operatorStation.app[1] numActiveSessions:vector ETV
attr autoWarmupFilter false
attr interpolationmode sample-hold
attr recordingmode vector
attr source warmup(sum(connect))
attr title "number of active sessions"
vector 251 ModbusTest1.switch1.bridging.directionReverser.reverser incomingPacketLengths:vector ETV
attr interpolationmode none
attr recordingmode vector
attr source "packetLength(merge(packetPushedIn, packetPulledIn))"
attr title "incoming packet lengths"
attr unit b
vector 252 ModbusTest1.switch1.bridging.directionReverser.reverser incomingDataRate:vector ETV
attr interpolationmode linear
attr recordingmode vector
attr source "throughput(merge(packetPushedIn, packetPulledIn))"
attr title "incoming data rate"
attr unit bps
vector 253 ModbusTest1.switch1.bridging.directionReverser.reverser outgoingPacketLengths:vector ETV
attr interpolationmode none
attr recordingmode vector
attr source "packetLength(merge(packetPushedOut, packetPulledOut))"
attr title "outgoing packet lengths"
attr unit b
vector 254 ModbusTest1.switch1.bridging.directionReverser.reverser outgoingDataRate:vector ETV
attr interpolationmode linear
attr recordingmode vector
attr source "throughput(merge(packetPushedOut, packetPulledOut))"
attr title "outgoing data rate"
attr unit bps
vector 255 ModbusTest1.switch1.bridging.directionReverser.reverser flowIncomingPacketLengths:vector ETV
attr interpolationmode none
attr recordingmode vector
attr source "packetLength(demuxFlow(merge(packetPushedIn, packetPulledIn)))"
attr title "flow specific incoming packet lengths"
attr unit b
vector 256 ModbusTest1.switch1.bridging.directionReverser.reverser flowIncomingDataRate:vector ETV
attr interpolationmode linear
attr recordingmode vector
attr source "throughput(demuxFlow(merge(packetPushedIn, packetPulledIn)))"
attr title "flow specific incoming data rate"
attr unit bps
vector 257 ModbusTest1.switch1.bridging.directionReverser.reverser flowOutgoingPacketLengths:vector ETV
attr interpolationmode none
attr recordingmode vector
attr source "packetLength(demuxFlow(merge(packetPushedOut, packetPulledOut)))"
attr title "flow specific outgoing packet lengths"
attr unit b
vector 258 ModbusTest1.switch1.bridging.directionReverser.reverser flowOutgoingDataRate:vector ETV
attr interpolationmode linear
attr recordingmode vector
attr source "throughput(demuxFlow(merge(packetPushedOut, packetPulledOut)))"
attr title "flow specific outgoing data rate"
attr unit bps
vector 259 ModbusTest1.switch1.bridging.directionReverser.join packetLengths:vector ETV
attr interpolationmode none
attr recordingmode vector
attr source "packetLength(merge(packetPushed, packetPulled))"
attr title "packet lengths"
attr unit b
vector 260 ModbusTest1.switch1.bridging.directionReverser.join dataRate:vector ETV
attr interpolationmode linear
attr recordingmode vector
attr source "throughput(merge(packetPushed, packetPulled))"
attr title "data rate"
attr unit bps
vector 261 ModbusTest1.switch1.bridging.interfaceRelay.learner incomingPacketLengths:vector ETV
attr interpolationmode none
attr recordingmode vector
attr source "packetLength(merge(packetPushedIn, packetPulledIn))"
attr title "incoming packet lengths"
attr unit b
vector 262 ModbusTest1.switch1.bridging.interfaceRelay.learner incomingDataRate:vector ETV
attr interpolationmode linear
attr recordingmode vector
attr source "throughput(merge(packetPushedIn, packetPulledIn))"
attr title "incoming data rate"
attr unit bps
vector 263 ModbusTest1.switch1.bridging.interfaceRelay.learner outgoingPacketLengths:vector ETV
attr interpolationmode none
attr recordingmode vector
attr source "packetLength(merge(packetPushedOut, packetPulledOut))"
attr title "outgoing packet lengths"
attr unit b
vector 264 ModbusTest1.switch1.bridging.interfaceRelay.learner outgoingDataRate:vector ETV
attr interpolationmode linear
attr recordingmode vector
attr source "throughput(merge(packetPushedOut, packetPulledOut))"
attr title "outgoing data rate"
attr unit bps
vector 265 ModbusTest1.switch1.bridging.interfaceRelay.learner flowIncomingPacketLengths:vector ETV
attr interpolationmode none
attr recordingmode vector
attr source "packetLength(demuxFlow(merge(packetPushedIn, packetPulledIn)))"
attr title "flow specific incoming packet lengths"
attr unit b
vector 266 ModbusTest1.switch1.bridging.interfaceRelay.learner flowIncomingDataRate:vector ETV
attr interpolationmode linear
attr recordingmode vector
attr source "throughput(demuxFlow(merge(packetPushedIn, packetPulledIn)))"
attr title "flow specific incoming data rate"
attr unit bps
vector 267 ModbusTest1.switch1.bridging.interfaceRelay.learner flowOutgoingPacketLengths:vector ETV
attr interpolationmode none
attr recordingmode vector
attr source "packetLength(demuxFlow(merge(packetPushedOut, packetPulledOut)))"
attr title "flow specific outgoing packet lengths"
attr unit b
vector 268 ModbusTest1.switch1.bridging.interfaceRelay.learner flowOutgoingDataRate:vector ETV
attr interpolationmode linear
attr recordingmode vector
attr source "throughput(demuxFlow(merge(packetPushedOut, packetPulledOut)))"
attr title "flow specific outgoing data rate"
attr unit bps
vector 269 ModbusTest1.switch1.bridging.interfaceRelay.selector packetDropped:vector(packetBytes) ETV
attr interpolationmode none
attr recordingmode vector(packetBytes)
attr title "packets dropped, packetBytes"
vector 270 ModbusTest1.switch1.ethernet.macHeaderInserter incomingPacketLengths:vector ETV
attr interpolationmode none
attr recordingmode vector
attr source "packetLength(merge(packetPushedIn, packetPulledIn))"
attr title "incoming packet lengths"
attr unit b
vector 271 ModbusTest1.switch1.ethernet.macHeaderInserter incomingDataRate:vector ETV
attr interpolationmode linear
attr recordingmode vector
attr source "throughput(merge(packetPushedIn, packetPulledIn))"
attr title "incoming data rate"
attr unit bps
vector 272 ModbusTest1.switch1.ethernet.macHeaderInserter outgoingPacketLengths:vector ETV
attr interpolationmode none
attr recordingmode vector
attr source "packetLength(merge(packetPushedOut, packetPulledOut))"
attr title "outgoing packet lengths"
attr unit b
vector 273 ModbusTest1.switch1.ethernet.macHeaderInserter outgoingDataRate:vector ETV
attr interpolationmode linear
attr recordingmode vector
attr source "throughput(merge(packetPushedOut, packetPulledOut))"
attr title "outgoing data rate"
attr unit bps
vector 274 ModbusTest1.switch1.ethernet.macHeaderInserter flowIncomingPacketLengths:vector ETV
attr interpolationmode none
attr recordingmode vector
attr source "packetLength(demuxFlow(merge(packetPushedIn, packetPulledIn)))"
attr title "flow specific incoming packet lengths"
attr unit b
vector 275 ModbusTest1.switch1.ethernet.macHeaderInserter flowIncomingDataRate:vector ETV
attr interpolationmode linear
attr recordingmode vector
attr source "throughput(demuxFlow(merge(packetPushedIn, packetPulledIn)))"
attr title "flow specific incoming data rate"
attr unit bps
vector 276 ModbusTest1.switch1.ethernet.macHeaderInserter flowOutgoingPacketLengths:vector ETV
attr interpolationmode none
attr recordingmode vector
attr source "packetLength(demuxFlow(merge(packetPushedOut, packetPulledOut)))"
attr title "flow specific outgoing packet lengths"
attr unit b
vector 277 ModbusTest1.switch1.ethernet.macHeaderInserter flowOutgoingDataRate:vector ETV
attr interpolationmode linear
attr recordingmode vector
attr source "throughput(demuxFlow(merge(packetPushedOut, packetPulledOut)))"
attr title "flow specific outgoing data rate"
attr unit bps
vector 278 ModbusTest1.switch1.ethernet.paddingInserter incomingPacketLengths:vector ETV
attr interpolationmode none
attr recordingmode vector
attr source "packetLength(merge(packetPushedIn, packetPulledIn))"
attr title "incoming packet lengths"
attr unit b
vector 279 ModbusTest1.switch1.ethernet.paddingInserter incomingDataRate:vector ETV
attr interpolationmode linear
attr recordingmode vector
attr source "throughput(merge(packetPushedIn, packetPulledIn))"
attr title "incoming data rate"
attr unit bps
vector 280 ModbusTest1.switch1.ethernet.paddingInserter outgoingPacketLengths:vector ETV
attr interpolationmode none
attr recordingmode vector
attr source "packetLength(merge(packetPushedOut, packetPulledOut))"
attr title "outgoing packet lengths"
attr unit b
vector 281 ModbusTest1.switch1.ethernet.paddingInserter outgoingDataRate:vector ETV
attr interpolationmode linear
attr recordingmode vector
attr source "throughput(merge(packetPushedOut, packetPulledOut))"
attr title "outgoing data rate"
attr unit bps
vector 282 ModbusTest1.switch1.ethernet.paddingInserter flowIncomingPacketLengths:vector ETV
attr interpolationmode none
attr recordingmode vector
attr source "packetLength(demuxFlow(merge(packetPushedIn, packetPulledIn)))"
attr title "flow specific incoming packet lengths"
attr unit b
vector 283 ModbusTest1.switch1.ethernet.paddingInserter flowIncomingDataRate:vector ETV
attr interpolationmode linear
attr recordingmode vector
attr source "throughput(demuxFlow(merge(packetPushedIn, packetPulledIn)))"
attr title "flow specific incoming data rate"
attr unit bps
vector 284 ModbusTest1.switch1.ethernet.paddingInserter flowOutgoingPacketLengths:vector ETV
attr interpolationmode none
attr recordingmode vector
attr source "packetLength(demuxFlow(merge(packetPushedOut, packetPulledOut)))"
attr title "flow specific outgoing packet lengths"
attr unit b
vector 285 ModbusTest1.switch1.ethernet.paddingInserter flowOutgoingDataRate:vector ETV
attr interpolationmode linear
attr recordingmode vector
attr source "throughput(demuxFlow(merge(packetPushedOut, packetPulledOut)))"
attr title "flow specific outgoing data rate"
attr unit bps
[...]
1687	3506058 8195 60 17254 0.00001386 19.50015398 323 560 792 201584 127739648
1688	3514253 3409 538 17001 0.1 19.5 195 0 62080 1965920 99284403200
1693	3517662 8273 50 17288 0.00001386 19.50018154 323 560 808 196552 120385600
1694	3525935 3409 530 16993 0.1 19.5 195 0 62320 1916880 94432032000
1695	3529344 8273 50 17288 0.00001386 19.50018154 323 560 808 196552 120385600
1696	3537617 3409 530 16993 0.1 19.5 195 0 62320 1916880 94432032000
1698	3541026 3485 17417 17417 0.1 20.0000072 201 0 0 0 0
1705	3544511 8273 50 17288 0.00001386 19.50018154 323 560 808 196552 120385600
1706	3552784 3409 530 16993 0.1 19.5 195 0 62320 1916880 94432032000
1707	3556193 8273 50 17288 0.00001386 19.50018154 323 560 808 196552 120385600
1708	3564466 3409 530 16993 0.1 19.5 195 0 62320 1916880 94432032000
1713	3567875 8195 60 17254 0.00001386 19.50015398 323 560 792 201584 127739648
1714	3576070 3409 538 17001 0.1 19.5 195 0 62080 1965920 99284403200
1715	3579479 8195 60 17254 0.00001386 19.50015398 323 624 856 222256 154865408
1716	3587674 3409 538 17001 0.1 19.5 195 0 68480 2167520 120691123200
1721	3591083 15230 0 17264 0 19.50016238 648 0 1 323 323
1722	3606313 8195 60 17254 0.00001386 19.50015398 323 624 856 222256 154865408
1723	3614508 3409 538 17001 0.1 19.5 195 0 68480 2167520 120691123200
1724	3617917 8195 60 17254 0.00001386 19.50015398 323 624 856 222256 154865408
1725	3626112 3409 538 17001 0.1 19.5 195 0 68480 2167520 120691123200
1730	3629521 15270 0 17261 0 19.50016142 648 0 1 323 323
1731	3644791 3525 543 17417 0.1 20.0000072 201 0 68480 2222560 123720524800
1732	3648316 3487 538 17001 0.1 19.5 195 0 0.06848 2.16752 0.1206911232
1733	3651803 9959 71 17261 0.00002074 19.50016142 323 6.24e-06 8.56e-06 0.00222256 1.54865408e-08
1735	3661762 8273 50 17288 0.00001386 19.50018154 323 624 872 217224 146867264
1736	3670035 3409 530 16993 0.1 19.5 195 0 68720 2118480 115334739200
1737	3673444 8273 50 17288 0.00001386 19.50018154 323 560 808 196552 120385600
1738	3681717 3409 530 16993 0.1 19.5 195 0 62320 1916880 94432032000
1740	3685126 3485 17417 17417 0.1 20.0000072 201 0 0 0 0
1747	3688611 8273 50 17288 0.00001386 19.50018154 323 624 872 217224 146867264
1748	3696884 3409 530 16993 0.1 19.5 195 0 68720 2118480 115334739200
1749	3700293 8273 50 17288 0.00001386 19.50018154 323 624 872 217224 146867264
1750	3708566 3409 530 16993 0.1 19.5 195 0 68720 2118480 115334739200
1755	3711975 3525 530 17417 0.1 20.0000072 201 0 68720 2172240 118224876800
1756	3715500 9728 50 17288 0.00001386 19.50018154 323 6.24e-06 8.72e-06 0.00217224 1.46867264e-08
1760	3725228 55 0 0 0 0 5 0 0 0 0
1761	3725283 55 0 0 0 0 5 0 0 0 0
1764	3725338 3485 17417 17417 0.1 20.0000072 201 0 0 0 0
1766	3728823 3485 17417 17417 0.1 20.0000072 201 0 0 0 0
1772	3732308 3485 17417 17417 0.1 20.0000072 201 0 0 0 0
1774	3735793 3485 17417 17417 0.1 20.0000072 201 0 0 0 0
1788	3739278 3485 17417 17417 0.1 20.0000072 201 0 0 0 0
1811	3742763 22 0 0 0 0 2 0 0 0 0
1820	3742785 22 0 0 0 0 2 0 0 0 0
1821	3742807 3485 17417 17417 0.1 20.0000072 201 0 0 0 0
1830	3746292 3485 17417 17417 0.1 20.0000072 201 0 0 0 0
1845	3749777 3485 17417 17417 0.1 20.0000072 201 0 0 0 0
1858	3753262 11 0 0 0 0 1 0 0 0 0
1859	3753273 11 0 0 0 0 1 0 0 0 0
1860	3753284 11 0 0 0 0 1 0 0 0 0
1861	3753295 3925 146 17240 0.00004222 19.50014678 161 12 31 1951 24001
1862	3757220 3925 146 17240 0.00004222 19.50014678 161 10 29 2572 50784
1864	3761145 4162 81 17369 0.0000217 19.50023374 161 416 496 73440 33756160
1865	3765307 3414 781 17305 0.1 19.5 195 0 23040 716160 13173350400
1866	3768721 4162 81 17369 0.0000217 19.50023374 161 528 608 91472 52226304
1867	3772883 3414 781 17305 0.1 19.5 195 0 28640 892000 20435788800
1872	3776297 4162 81 17369 0.0000217 19.50023374 161 528 608 91472 52226304
1873	3780459 3414 781 17305 0.1 19.5 195 0 28640 892000 20435788800
1874	3783873 4162 81 17369 0.0000217 19.50023374 161 528 608 91472 52226304
1875	3788035 3414 781 17305 0.1 19.5 195 0 28640 892000 20435788800
1880	3791449 4162 81 17369 0.0000217 19.50023374 161 528 608 91472 52226304
1881	3795611 3414 781 17305 0.1 19.5 195 0 28640 892000 20435788800
1882	3799025 4162 81 17369 0.0000217 19.50023374 161 560 640 96624 58245376
1883	3803187 3414 781 17305 0.1 19.5 195 0 30240 942240 22802457600
1888	3806601 4149 75 17405 0.0000217 19.5002677 162 528 624 93280 54082048
1889	3810750 3414 775 17299 0.1 19.5 195 0 34240 909760 21344358400
1890	3814164 4149 75 17405 0.0000217 19.5002677 162 416 512 75136 35219456
1891	3818313 3414 775 17299 0.1 19.5 195 0 27520 732800 13847347200
1893	3821727 3485 17417 17417 0.1 20.0000072 201 0 0 0 0
1900	3825212 4149 75 17405 0.0000217 19.5002677 162 560 656 98464 60217856
1901	3829361 3414 775 17299 0.1 19.5 195 0 36160 960320 23783116800
1902	3832775 4149 75 17405 0.0000217 19.5002677 162 528 624 93280 54082048
1903	3836924 3414 775 17299 0.1 19.5 195 0 34240 909760 21344358400
1905	3840338 3485 17417 17417 0.1 20.0000072 201 0 0 0 0
1916	3843823 7736 0 17377 0 19.50024094 327 0 1 161 161
1917	3851559 8058 0 17377 0 19.50024094 327 0 640 96624 58245376
1918	3859617 4321 82 17377 0.0000217 19.50024094 161 0 7.2e-06 0.000576 4.1472e-09
1919	3863938 4162 81 17369 0.0000217 19.50023374 161 560 640 96624 58245376
1920	3868100 3530 781 17417 0.1 20.0000072 201 0 30240 966240 23378457600
1921	3871630 4163 82 17377 0.0000217 19.50024094 161 560 640 96624 58245376
1922	3875793 3530 783 17417 0.1 20.0000072 201 0 30240 966240 23378457600
1927	3879323 4163 82 17377 0.0000217 19.50024094 161 560 640 96624 58245376
1928	3883486 3530 783 17417 0.1 20.0000072 201 0 30240 966240 23378457600
1929	3887016 4163 82 17377 0.0000217 19.50024094 161 560 640 96624 58245376
1930	3891179 3530 783 17417 0.1 20.0000072 201 0 30240 966240 23378457600
1931	3894709 4163 82 17377 0.0000217 19.50024094 161 560 640 96624 58245376
1932	3898872 3414 783 17307 0.1 19.5 195 0 30240 942240 22802457600
1933	3902286 4163 82 17377 0.0000217 19.50024094 161 560 640 96624 58245376
1934	3906449 3414 783 17307 0.1 19.5 195 0 30240 942240 22802457600
1939	3909863 4149 75 17405 0.0000217 19.5002677 162 560 656 98464 60217856
1940	3914012 3414 775 17299 0.1 19.5 195 0 36160 960320 23783116800
1941	3917426 4149 75 17405 0.0000217 19.5002677 162 560 656 98464 60217856
1942	3921575 3414 775 17299 0.1 19.5 195 0 36160 960320 23783116800
1944	3924989 3485 17417 17417 0.1 20.0000072 201 0 0 0 0
1951	3928474 4149 75 17405 0.0000217 19.5002677 162 560 656 98464 60217856
1952	3932623 3414 775 17299 0.1 19.5 195 0 36160 960320 23783116800
1953	3936037 4149 75 17405 0.0000217 19.5002677 162 560 656 98464 60217856
1954	3940186 3414 775 17299 0.1 19.5 195 0 36160 960320 23783116800
1959	3943600 4163 82 17377 0.0000217 19.50024094 161 560 640 96624 58245376
1960	3947763 3414 783 17307 0.1 19.5 195 0 30240 942240 22802457600
1961	3951177 4163 82 17377 0.0000217 19.50024094 161 624 704 106928 71272704
1962	3955340 3414 783 17307 0.1 19.5 195 0 33440 1042720 27924710400
1967	3958754 7633 0 17387 0 19.50024894 324 0 1 161 161
1968	3966387 4163 82 17377 0.0000217 19.50024094 161 624 704 106928 71272704
1969	3970550 3414 783 17307 0.1 19.5 195 0 33440 1042720 27924710400
1970	3973964 4163 82 17377 0.0000217 19.50024094 161 624 704 106928 71272704
1971	3978127 3414 783 17307 0.1 19.5 195 0 33440 1042720 27924710400
1976	3981541 7630 0 17384 0 19.50024798 324 0 1 161 161
1977	3989171 3535 788 17417 0.1 20.0000072 201 0 33440 1069280 28630144000
1978	3992706 3492 783 17307 0.1 19.5 195 0 0.03344 1.04272 0.0279247104
1979	3996198 4894 98 17384 0.00002858 19.50024798 161 6.24e-06 7.04e-06 0.00106928 7.1272704e-09
1981	4001092 4149 75 17405 0.0000217 19.5002677 162 624 720 108832 73484800
1982	4005241 3414 775 17299 0.1 19.5 195 0 40000 1061440 29056307200
1983	4008655 4149 75 17405 0.0000217 19.5002677 162 560 656 98464 60217856
1984	4012804 3414 775 17299 0.1 19.5 195 0 36160 960320 23783116800
1986	4016218 3485 17417 17417 0.1 20.0000072 201 0 0 0 0
1993	4019703 4149 75 17405 0.0000217 19.5002677 162 624 720 108832 73484800
1994	4023852 3414 775 17299 0.1 19.5 195 0 40000 1061440 29056307200
1995	4027266 4149 75 17405 0.0000217 19.5002677 162 624 720 108832 73484800
1996	4031415 3414 775 17299 0.1 19.5 195 0 40000 1061440 29056307200
2001	4034829 3530 775 17417 0.1 20.0000072 201 0 40000 1088320 29778841600
2002	4038359 4879 75 17405 0.0000217 19.5002677 162 6.24e-06 7.2e-06 0.00108832 7.34848e-09
2006	4043238 55 0 0 0 0 5 0 0 0 0
2007	4043293 55 0 0 0 0 5 0 0 0 0
2010	4043348 3485 17417 17417 0.1 20.0000072 201 0 0 0 0
2012	4046833 3485 17417 17417 0.1 20.0000072 201 0 0 0 0
2018	4050318 3485 17417 17417 0.1 20.0000072 201 0 0 0 0
2020	4053803 3485 17417 17417 0.1 20.0000072 201 0 0 0 0
2034	4057288 3485 17417 17417 0.1 20.0000072 201 0 0 0 0
2057	4060773 22 0 0 0 0 2 0 0 0 0
2066	4060795 22 0 0 0 0 2 0 0 0 0
2067	4060817 3485 17417 17417 0.1 20.0000072 201 0 0 0 0
2076	4064302 3485 17417 17417 0.1 20.0000072 201 0 0 0 0
2091	4067787 3485 17417 17417 0.1 20.0000072 201 0 0 0 0
2104	4071272 11 0 0 0 0 1 0 0 0 0
2105	4071283 11 0 0 0 0 1 0 0 0 0
2106	4071294 11 0 0 0 0 1 0 0 0 0
2107	4071305 1990 409 17363 0.00021902 19.50023374 80 12 12 960 11520
2111	4073295 4511 93 17258 0.00002772 19.50015936 162 65523 65535 10616658 695761895754
2112	4077806 8539 20 17413 0 20 324 65535 65535 21233340 1391526936900
2113	4086345 8564 20 17413 0 20 325 65535 68111 21716835 1451323588309
2115	4094909 8075 20 17413 0 20 324 0 2576 417956 719797968
2116	4102984 8453 93 17269 0.00002772 19.50016896 323 3 2561 412811 706526441
2117	4111437 8415 93 17269 0.00002772 19.50016896 323 1 1952 317145 415306649
2118	4119852 7471 93 17413 0.00002772 20 323 0 31 1963 24145
2119	4127323 7606 182 17269 0.00005608 19.50016896 322 0 0 0 0
2122	4134929 22 182 182 0.00005608 0.00005608 1 1 1 1 1
2125	4134951 22 182 182 0.00005608 0.00005608 1 0 0 0 0
2126	4134973 11007 20 17413 0 20 485 0 0 0 0
2128	4145980 7788 93 17269 0.00002772 19.50016896 323 0 29 2572 50784
2129	4153768 4579 182 17258 0.00005608 19.50015936 161 5832 238152 19640712 3129193537344
2130	4158347 5291 182 17258 0.00005608 19.50015936 161 4294967295 4294967295 691489734495 2.9699257944843e+21
2131	4163638 3842 182 17258 0.00005608 19.50015936 161 0 0 0 0
2132	4167480 3842 182 17258 0.00005608 19.50015936 161 0 0 0 0
2133	4171322 5590 182 17258 0.00005608 19.50015936 161 3.46e-10 0.65625 5.249999997675 1.8375000000024
2134	4176912 3926 182 17258 0.00005608 19.50015936 161 1 2.625 166.78421276808 178.92882764159
2140	4180838 2257 120 17381 0.00003556 19.50024632 81 65535 65535 5308335 347881734225
2141	4183095 4503 21 17392 0 19.50025512 162 65535 65535 10616670 695763468450
2142	4187598 4529 21 17392 0 19.50025512 163 65535 66341 10747177 708609094547
2144	4192127 4155 21 17392 0 19.50025512 162 0 806 64966 34909796
2145	4196282 4142 120 17392 0.00003556 19.50025512 161 5 796 64165 34260185
2146	4200424 4148 120 17392 0.00003556 19.50025512 161 1 961 77921 50233121
2147	4204572 3901 383 17381 0.00019732 19.50024632 160 0 12 960 11520
2148	4208473 3822 427 17392 0.0002316 19.50025512 160 0 0 0 0
2155	4212295 5766 21 17392 0 19.50025512 242 0 0 0 0
2157	4218061 3924 120 17392 0.00003556 19.50025512 161 0 10 800 8000
2158	4221985 2243 427 17381 0.0002316 19.50024632 80 5832 120540 5054880 409337896320
2159	4224228 2631 427 17381 0.0002316 19.50024632 80 4294967295 4294967295 343597383600 1.4757395252096e+21
2160	4226859 1911 427 17381 0.0002316 19.50024632 80 0 0 0 0
2161	4228770 1911 427 17381 0.0002316 19.50024632 80 0 0 0 0
2162	4230681 2918 427 17381 0.0002316 19.50024632 80 1.7207014e-05 0.65625 5.249879550964 1.8374999990352
2163	4233599 1995 427 17381 0.0002316 19.50024632 80 1 2.625 85.784212768084 97.92882764159
2174	4235594 27 911 911 1.00001386 1.00001386 1 250000 250000 250000 62500000000
2175	4235621 22 911 911 1.00001386 1.00001386 1 0 0 0 0
2186	4235643 22 911 911 1.00001386 1.00001386 1 0 0 0 0
2203	4235665 21 55 55 0.00001386 0.00001386 1 0 0 0 0
2204	4235686 21 55 55 0.00001386 0.00001386 1 0 0 0 0
2215	4235707 21 55 55 0.00001386 0.00001386 1 0 0 0 0
2232	4235728 21 54 54 0.00001386 0.00001386 1 0 0 0 0
2233	4235749 21 54 54 0.00001386 0.00001386 1 0 0 0 0
2244	4235770 21 54 54 0.00001386 0.00001386 1 0 0 0 0
2261	4235791 20 79 79 0.0000217 0.0000217 1 0 0 0 0
2262	4235811 20 79 79 0.0000217 0.0000217 1 0 0 0 0
2273	4235831 20 79 79 0.0000217 0.0000217 1 0 0 0 0
2285	4235851 52 107 6183 0.00002954 7.0000314 2 65535 65535 131070 8589672450
2286	4235903 105 27 6643 0 7.00032326 5 65535 65535 327675 21474181125
2287	4236008 131 27 6643 0 7.00032326 6 65535 65551 393242 25773211910
2288	4236139 28 3515 6109 4 7 2 1 1 2 2
2289	4236167 86 27 6643 0 7.00032326 5 0 16 28 304
2290	4236253 67 107 6643 0.00002954 7.00032326 3 3 4 11 41
2291	4236320 69 107 6643 0.00002954 7.00032326 3 1 40 81 3201
2292	4236389 37 3515 6183 4 7.0000314 2 0 39 39 1521
2293	4236426 45 6183 6643 7.0000314 7.00032326 2 0 0 0 0
2300	4236471 108 27 6643 0 7.00032326 6 0 0 0 0
2302	4236579 68 107 6643 0.00002954 7.00032326 3 0 12 12 144
2303	4236647 42 6109 6183 7 7.0000314 2 1452 2904 4356 10541520
2304	4236689 42 6109 6183 7 7.0000314 2 2904 2904 5808 16866432
2305	4236731 22 6183 6183 7.0000314 7.0000314 1 0 0 0 0
2306	4236753 22 6183 6183 7.0000314 7.0000314 1 0 0 0 0
2307	4236775 28 6183 6183 7.0000314 7.0000314 1 0.65625 0.65625 0.65625 0.4306640625
2308	4236803 26 6183 6183 7.0000314 7.0000314 1 2.625 2.625 2.625 6.890625
2309	4236829 14 6109 6109 7 7 1 1 1 1 1
2314	4236843 4537 54 17290 0.00001386 19.50018154 163 65535 65535 10682205 700058304675
2315	4241380 8841 54 17242 0.00001386 19.50014678 323 65523 65535 21167793 1387230527979
2316	4250221 8866 54 17242 0.00001386 19.50014678 324 65536 67487 21550474 1433508996762
2318	4259087 8337 54 17242 0.00001386 19.50014678 323 1 1952 317145 415306649
2319	4267424 8391 140 17290 0.00004222 19.50018154 322 1 1952 315193 411496345
2320	4275815 8435 140 17290 0.00004222 19.50018154 322 4 2576 415380 713162192
2321	4284250 7789 140 17290 0.00004222 19.50018154 323 0 29 2572 50784
2322	4292039 7606 140 17290 0.00004222 19.50018154 322 0 0 0 0
2324	4299645 22 140 140 0.00004222 0.00004222 1 1 1 1 1
2329	4299667 11314 54 17242 0.00001386 19.50014678 484 0 12 12 144
2331	4310981 7767 140 17290 0.00004222 19.50018154 322 0 31 1951 24001
2332	4318748 4606 140 17290 0.00004222 19.50018154 162 5832 239604 19880316 3186603614160
2333	4323354 5322 140 17290 0.00004222 19.50018154 162 4294967295 4294967295 695784701790 2.9883725385494e+21
2334	4328676 3864 140 17290 0.00004222 19.50018154 162 0 0 0 0
2335	4332540 3864 140 17290 0.00004222 19.50018154 162 0 0 0 0
2336	4336404 5619 140 17290 0.00004222 19.50018154 162 3.03e-10 0.65625 5.249999997978 1.8375000000024
2337	4342023 3948 140 17290 0.00004222 19.50018154 162 1 2.625 167.78421276808 179.92882764159
2343	4345971 78 55 6658 0.00001386 7.00033584 3 65535 65535 196605 12884508675
2344	4346049 79 55 6616 0.00001386 7.00030156 3 65535 65535 196605 12884508675
2345	4346128 104 55 6616 0.00001386 7.00030156 4 65536 65575 262222 17190095842
2347	4346232 69 55 6616 0.00001386 7.00030156 3 1 40 81 3201
2348	4346301 69 155 6658 0.00004276 7.00033584 3 1 40 42 1602
2349	4346370 69 155 6658 0.00004276 7.00033584 3 4 16 24 288
2350	4346439 69 155 6658 0.00004276 7.00033584 3 0 12 12 144
2351	4346508 46 6147 6658 7.00001882 7.00033584 2 0 0 0 0
2358	4346554 90 55 6616 0.00001386 7.00030156 4 0 0 0 0
2360	4346644 69 155 6658 0.00004276 7.00033584 3 0 39 39 1521
2361	4346713 26 6658 6658 7.00033584 7.00033584 1 5832 5832 5832 34012224
2362	4346739 32 6658 6658 7.00033584 7.00033584 1 4294967295 4294967295 4294967295 1.844674406512e+19
2363	4346771 45 155 6658 0.00004276 7.00033584 2 0 0 0 0
2364	4346816 45 155 6658 0.00004276 7.00033584 2 0 0 0 0
2365	4346861 60 155 6658 0.00004276 7.00033584 2 0.57421875 0.65625 1.23046875 0.76039123535156
2366	4346921 56 155 6658 0.00004276 7.00033584 2 2.296875 2.625 4.921875 12.166259765625
2372	4346977 2243 79 17407 0.0000217 19.5002677 82 65535 65535 5373870 352176570450
2373	4349220 4484 79 17365 0.0000217 19.50023374 161 65535 65535 10551135 691468632225
2374	4353704 4508 79 17365 0.0000217 19.50023374 162 65536 66496 10694592 706026938112
2376	4358212 4144 79 17365 0.0000217 19.50023374 161 1 961 77921 50233121
2377	4362356 4107 168 17407 0.00004846 19.5002677 161 1 961 76961 49309601
2378	4366463 4105 168 17407 0.00004846 19.5002677 161 6 806 64966 34909796
2379	4370568 3885 168 17407 0.00004846 19.5002677 161 0 10 800 8000
2380	4374453 3783 408 17407 0.00021902 19.5002677 160 0 0 0 0
2387	4378236 5750 79 17365 0.0000217 19.50023374 241 0 0 0 0
2389	4383986 3885 168 17407 0.00004846 19.5002677 161 0 12 960 11520
2390	4387871 2205 458 17407 0.00025298 19.5002677 80 5832 120540 5054880 409337896320
2391	4390076 2593 458 17407 0.00025298 19.5002677 80 4294967295 4294967295 343597383600 1.4757395252096e+21
2392	4392669 1895 168 17407 0.00004846 19.5002677 81 0 0 0 0
2393	4394564 1895 168 17407 0.00004846 19.5002677 81 0 0 0 0
2394	4396459 2914 168 17407 0.00004846 19.5002677 81 1.5056137e-05 0.65625 5.249894607101 1.8374999992619
2395	4399373 1979 168 17407 0.00004846 19.5002677 81 1 2.625 86.784212768084 98.92882764159
2401	4401352 1089 948 17100 1.00002772 19.50006382 39 65535 65535 2555865 167498612775
2402	4402441 2168 888 17155 1 19.50009646 78 65535 65535 5111730 334997225550
2403	4404609 2272 888 17155 1 19.50009646 79 65535 321581 24907173 7916172074265
2405	4406881 2241 888 17155 1 19.50009646 78 0 256046 19479904 4928378970914
2406	4409122 2229 948 17155 1.00002772 19.50009646 77 250003 255887 19473861 4925320916807
2407	4411351 2229 948 17155 1.00002772 19.50009646 77 250001 250191 19257487 4816244465847
2408	4413580 1821 952 17100 1.00002772 19.50006382 76 0 5 190 950
2409	4415401 1822 1053 17155 1.00006382 19.50009646 76 0 0 0 0
2416	4417223 2767 888 17155 1 19.50009646 116 0 0 0 0
2418	4419990 1920 948 17155 1.00002772 19.50009646 77 0 159 6042 960678
2419	4421910 1060 1053 17100 1.00006382 19.50006382 38 5832 59556 1242372 50252005296
2420	4422970 1253 1053 17100 1.00006382 19.50006382 38 4294967295 4294967295 163208757210 7.0097627447455e+20
2421	4424223 911 1053 17100 1.00006382 19.50006382 38 0 0 0 0
2422	4425134 911 1053 17100 1.00006382 19.50006382 38 0 0 0 0
2423	4426045 1390 1053 17100 1.00006382 19.50006382 38 0.004692100204 0.65625 5.217155298595 1.8374280817083
2424	4427435 995 1053 17100 1.00006382 19.50006382 38 1 2.625 43.784212768084 55.92882764159
2430	4428430 1115 911 17186 1.00001386 19.50010904 40 65535 65535 2621400 171793449000
2431	4429545 2152 911 17058 1.00001386 19.50004348 77 65535 65535 5046195 330702389325
2432	4431697 2256 911 17058 1.00001386 19.50004348 78 315536 315726 24619218 7770588643558
2433	4433953 1101 1020 17058 1.00005068 19.50004348 38 250004 255887 9611929 2431409708399
2434	4435054 2229 911 17058 1.00001386 19.50004348 77 250001 250191 19257487 4816244465847
2435	4437283 2229 999 17186 1.00004308 19.50010904 77 250001 250191 19257297 4816149429367
2436	4439512 2229 999 17186 1.00004308 19.50010904 77 250004 256046 19479904 4928378970914
2437	4441741 1920 999 17186 1.00004308 19.50010904 77 0 159 6042 960678
2438	4443661 1822 1017 17186 1.00005068 19.50010904 76 0 0 0 0
2445	4445483 2755 911 17058 1.00001386 19.50004348 115 0 0 0 0
2447	4448238 1844 999 17186 1.00004308 19.50010904 77 0 5 190 950
2448	4450082 1060 1139 17186 1.00010904 19.50010904 38 5832 59556 1242372 50252005296
2449	4451142 1253 1139 17186 1.00010904 19.50010904 38 4294967295 4294967295 163208757210 7.0097627447455e+20
2450	4452395 933 999 17186 1.00004308 19.50010904 39 0 1 1 1
2451	4453328 1419 999 17186 1.00004308 19.50010904 39 0.000782016701 0.125 0.994525883102 0.066664668936202
2452	4454747 1422 999 17186 1.00004308 19.50010904 39 0.009132837897 0.78125 7.179814001148 3.0262348169352
2453	4456169 1054 999 17186 1.00004308 19.50010904 39 1 3.25 49.647350456813 75.937113636971

