file 4472538 1762335614                                         
version 3
run unHardInLoop-0-20251105-17:40:05-58193
attr configname unHardInLoop
attr datetime 20251105-17:40:05
attr datetimef 20251105-174005
attr experiment unHardInLoop
attr inifile omnetpp.ini
attr iterationvars ""
attr iterationvarsd ""
attr iterationvarsf ""
attr measurement ""
attr network ModbusTest1
attr processid 58193
attr repetition 0
attr replication #0
attr resultdir results
attr runnumber 0
attr seedset 0
config image-path ../../inet4.5/images
config *.client[*].numApps 1
config *.client[*].app[0].typename ModbusSlaveApp
config *.client[*].app[0].localPort 502
config *.client[*].app[0].slavesConfigPath "\"SlaveConfig.json\""
config network ModbusTest1
config sim-time-limit 20s
config *.*.eth[*].bitrate 100Mbps
config *.numClients 2
config *.operatorStation.numApps 2
config *.operatorStation.app[0].typename OperatorStationApp
config *.operatorStation.app[0].connectAddress "\"server\""
config *.operatorStation.app[0].connectPort 1000
config *.operatorStation.app[0].interval 0.5s
config *.operatorStation.app[1].typename OperatorStationApp2
config *.operatorStation.app[1].connectAddress "\"server\""
config *.operatorStation.app[1].connectPort 666
config *.operatorStation.app[1].modbusRequest "\"client[0] 01 10 000B 0009 00 01 00 02 00 03 00 04 00 05 00 06 00 07 00 08 00 09;client[0] 01 05 0000 0001 00\""
config *.operatorStation.app[1].sendTime "\"4 5\""
config *.operatorStation.app[1].seed 0
config *.server.numApps 3
config *.server.app[0].typename ModbusMasterApp
config *.server.app[0].numConnect 2
config *.server.app[0].configFile "\"MasterConfig.json\""
config *.server.app[0].readInterval 0.5s
config *.server.app[1].typename ModbusTcpServerApp
config *.server.app[1].localPort 1000
config *.server.app[2].typename TransitApp
config *.server.app[2].localPort 666
config **.tcp.typename Tcp
config **.tcp.advertisedWindow 65535
config **.tcp.delayedAcksEnabled false
config **.tcp.nagleEnabled false
config **.tcp.limitedTransmitEnabled true
config **.tcp.increasedIWEnabled true
config **.tcp.sackSupport true
config **.tcp.windowScalingSupport true
config **.tcp.timestampSupport true
config **.tcp.mss 1452
config **.tcp.tcpAlgorithmClass "\"TcpReno\""
config **.crcMode "\"computed\""
config **.fcsMode "\"computed\""
config *.server.numPcapRecorders 1
config *.server.pcapRecorder[*].pcapFile "\"results/server.pcap\""
config *.visualizer.interfaceTableVisualizer.displayInterfaceTables true

vector 0 ModbusTest1.operatorStation.ethernet.macHeaderInserter incomingPacketLengths:vector ETV
attr interpolationmode none
attr recordingmode vector
attr source "packetLength(merge(packetPushedIn, packetPulledIn))"
attr title "incoming packet lengths"
attr unit b
vector 1 ModbusTest1.operatorStation.ethernet.macHeaderInserter incomingDataRate:vector ETV
attr interpolationmode linear
attr recordingmode vector
attr source "throughput(merge(packetPushedIn, packetPulledIn))"
attr title "incoming data rate"
attr unit bps
vector 2 ModbusTest1.operatorStation.ethernet.macHeaderInserter outgoingPacketLengths:vector ETV
attr interpolationmode none
attr recordingmode vector
attr source "packetLength(merge(packetPushedOut, packetPulledOut))"
attr title "outgoing packet lengths"
attr unit b
vector 3 ModbusTest1.operatorStation.ethernet.macHeaderInserter outgoingDataRate:vector ETV
attr interpolationmode linear
attr recordingmode vector
attr source "throughput(merge(packetPushedOut, packetPulledOut))"
attr title "outgoing data rate"
attr unit bps
vector 4 ModbusTest1.operatorStation.ethernet.macHeaderInserter flowIncomingPacketLengths:vector ETV
attr interpolationmode none
attr recordingmode vector
attr source "packetLength(demuxFlow(merge(packetPushedIn, packetPulledIn)))"
attr title "flow specific incoming packet lengths"
attr unit b
vector 5 ModbusTest1.operatorStation.ethernet.macHeaderInserter flowIncomingDataRate:vector ETV
attr interpolationmode linear
attr recordingmode vector
attr source "throughput(demuxFlow(merge(packetPushedIn, packetPulledIn)))"
attr title "flow specific incoming data rate"
attr unit bps
vector 6 ModbusTest1.operatorStation.ethernet.macHeaderInserter flowOutgoingPacketLengths:vector ETV
attr interpolationmode none
attr recordingmode vector
attr source "packetLength(demuxFlow(merge(packetPushedOut, packetPulledOut)))"
attr title "flow specific outgoing packet lengths"
attr unit b
vector 7 ModbusTest1.operatorStation.ethernet.macHeaderInserter flowOutgoingDataRate:vector ETV
attr interpolationmode linear
attr recordingmode vector
attr source "throughput(demuxFlow(merge(packetPushedOut, packetPulledOut)))"
attr title "flow specific outgoing data rate"
attr unit bps
vector 8 ModbusTest1.operatorStation.ethernet.paddingInserter incomingPacketLengths:vector ETV
attr interpolationmode none
attr recordingmode vector
attr source "packetLength(merge(packetPushedIn, packetPulledIn))"
attr title "incoming packet lengths"
attr unit b
vector 9 ModbusTest1.operatorStation.ethernet.paddingInserter incomingDataRate:vector ETV
attr interpolationmode linear
attr recordingmode vector
attr source "throughput(merge(packetPushedIn, packetPulledIn))"
attr title "incoming data rate"
attr unit bps
vector 10 ModbusTest1.operatorStation.ethernet.paddingInserter outgoingPacketLengths:vector ETV
attr interpolationmode none
attr recordingmode vector
attr source "packetLength(merge(packetPushedOut, packetPulledOut))"
attr title "outgoing packet lengths"
attr unit b
vector 11 ModbusTest1.operatorStation.ethernet.paddingInserter outgoingDataRate:vector ETV
attr interpolationmode linear
attr recordingmode vector
attr source "throughput(merge(packetPushedOut, packetPulledOut))"
attr title "outgoing data rate"
attr unit bps
vector 12 ModbusTest1.operatorStation.ethernet.paddingInserter flowIncomingPacketLengths:vector ETV
attr interpolationmode none
attr recordingmode vector
attr source "packetLength(demuxFlow(merge(packetPushedIn, packetPulledIn)))"
attr title "flow specific incoming packet lengths"
attr unit b
vector 13 ModbusTest1.operatorStation.ethernet.paddingInserter flowIncomingDataRate:vector ETV
attr interpolationmode linear
attr recordingmode vector
attr source "throughput(demuxFlow(merge(packetPushedIn, packetPulledIn)))"
attr title "flow specific incoming data rate"
attr unit bps
vector 14 ModbusTest1.operatorStation.ethernet.paddingInserter flowOutgoingPacketLengths:vector ETV
attr interpolationmode none
attr recordingmode vector
attr source "packetLength(demuxFlow(merge(packetPushedOut, packetPulledOut)))"
attr title "flow specific outgoing packet lengths"
attr unit b
vector 15 ModbusTest1.operatorStation.ethernet.paddingInserter flowOutgoingDataRate:vector ETV
attr interpolationmode linear
attr recordingmode vector
attr source "throughput(demuxFlow(merge(packetPushedOut, packetPulledOut)))"
attr title "flow specific outgoing data rate"
attr unit bps
vector 16 ModbusTest1.operatorStation.ethernet.fcsInserter incomingPacketLengths:vector ETV
attr interpolationmode none
attr recordingmode vector
attr source "packetLength(merge(packetPushedIn, packetPulledIn))"
attr title "incoming packet lengths"
attr unit b
vector 17 ModbusTest1.operatorStation.ethernet.fcsInserter incomingDataRate:vector ETV
attr interpolationmode linear
attr recordingmode vector
attr source "throughput(merge(packetPushedIn, packetPulledIn))"
attr title "incoming data rate"
attr unit bps
vector 18 ModbusTest1.operatorStation.ethernet.fcsInserter outgoingPacketLengths:vector ETV
attr interpolationmode none
attr recordingmode vector
attr source "packetLength(merge(packetPushedOut, packetPulledOut))"
attr title "outgoing packet lengths"
attr unit b
vector 19 ModbusTest1.operatorStation.ethernet.fcsInserter outgoingDataRate:vector ETV
attr interpolationmode linear
attr recordingmode vector
attr source "throughput(merge(packetPushedOut, packetPulledOut))"
attr title "outgoing data rate"
attr unit bps
vector 20 ModbusTest1.operatorStation.ethernet.fcsInserter flowIncomingPacketLengths:vector ETV
attr interpolationmode none
attr recordingmode vector
attr source "packetLength(demuxFlow(merge(packetPushedIn, packetPulledIn)))"
attr title "flow specific incoming packet lengths"
attr unit b
vector 21 ModbusTest1.operatorStation.ethernet.fcsInserter flowIncomingDataRate:vector ETV
attr interpolationmode linear
attr recordingmode vector
attr source "throughput(demuxFlow(merge(packetPushedIn, packetPulledIn)))"
attr title "flow specific incoming data rate"
attr unit bps
vector 22 ModbusTest1.operatorStation.ethernet.fcsInserter flowOutgoingPacketLengths:vector ETV
attr interpolationmode none
attr recordingmode vector
attr source "packetLength(demuxFlow(merge(packetPushedOut, packetPulledOut)))"
attr title "flow specific outgoing packet lengths"
attr unit b
vector 23 ModbusTest1.operatorStation.ethernet.fcsInserter flowOutgoingDataRate:vector ETV
attr interpolationmode linear
attr recordingmode vector
attr source "throughput(demuxFlow(merge(packetPushedOut, packetPulledOut)))"
attr title "flow specific outgoing data rate"
attr unit bps
vector 24 ModbusTest1.operatorStation.ethernet.macHeaderChecker incomingPacketLengths:vector ETV
attr interpolationmode none
attr recordingmode vector
attr source "packetLength(merge(packetPushedIn, packetPulledIn))"
attr title "incoming packet lengths"
attr unit b
vector 25 ModbusTest1.operatorStation.ethernet.macHeaderChecker incomingDataRate:vector ETV
attr interpolationmode linear
attr recordingmode vector
attr source "throughput(merge(packetPushedIn, packetPulledIn))"
attr title "incoming data rate"
attr unit bps
vector 26 ModbusTest1.operatorStation.ethernet.macHeaderChecker outgoingPacketLengths:vector ETV
attr interpolationmode none
attr recordingmode vector
attr source "packetLength(merge(packetPushedOut, packetPulledOut))"
attr title "outgoing packet lengths"
attr unit b
vector 27 ModbusTest1.operatorStation.ethernet.macHeaderChecker outgoingDataRate:vector ETV
attr interpolationmode linear
attr recordingmode vector
attr source "throughput(merge(packetPushedOut, packetPulledOut))"
attr title "outgoing data rate"
attr unit bps
vector 28 ModbusTest1.operatorStation.ethernet.macHeaderChecker droppedPacketLengths:vector ETV
attr interpolationmode none
attr recordingmode vector
attr source packetLength(packetDropped)
attr title "dropped packet lengths"
attr unit b
vector 29 ModbusTest1.operatorStation.ethernet.macHeaderChecker droppedDataRate:vector ETV
attr interpolationmode linear
attr recordingmode vector
attr source throughput(packetDropped)
attr title "dropped data rate"
attr unit bps
vector 30 ModbusTest1.operatorStation.ethernet.macHeaderChecker flowIncomingPacketLengths:vector ETV
attr interpolationmode none
attr recordingmode vector
attr source "packetLength(demuxFlow(merge(packetPushedIn, packetPulledIn)))"
attr title "flow specific incoming packet lengths"
attr unit b
vector 31 ModbusTest1.operatorStation.ethernet.macHeaderChecker flowIncomingDataRate:vector ETV
attr interpolationmode linear
attr recordingmode vector
attr source "throughput(demuxFlow(merge(packetPushedIn, packetPulledIn)))"
attr title "flow specific incoming data rate"
attr unit bps
vector 32 ModbusTest1.operatorStation.ethernet.macHeaderChecker flowOutgoingPacketLengths:vector ETV
attr interpolationmode none
attr recordingmode vector
attr source "packetLength(demuxFlow(merge(packetPushedOut, packetPulledOut)))"
attr title "flow specific outgoing packet lengths"
attr unit b
vector 33 ModbusTest1.operatorStation.ethernet.macHeaderChecker flowOutgoingDataRate:vector ETV
attr interpolationmode linear
attr recordingmode vector
attr source "throughput(demuxFlow(merge(packetPushedOut, packetPulledOut)))"
attr title "flow specific outgoing data rate"
attr unit bps
vector 34 ModbusTest1.operatorStation.ethernet.macHeaderChecker flowDroppedPacketLengths:vector ETV
attr interpolationmode none
attr recordingmode vector
attr source packetLength(demuxFlow(packetDropped))
attr title "flow specific dropped packet lengths"
attr unit b
vector 35 ModbusTest1.operatorStation.ethernet.macHeaderChecker flowDroppedDataRate:vector ETV
attr interpolationmode linear
attr recordingmode vector
attr source throughput(demuxFlow(packetDropped))
attr title "flow specific dropped data rate"
attr unit bps
vector 36 ModbusTest1.operatorStation.ethernet.fcsChecker incomingPacketLengths:vector ETV
attr interpolationmode none
attr recordingmode vector
attr source "packetLength(merge(packetPushedIn, packetPulledIn))"
attr title "incoming packet lengths"
attr unit b
vector 37 ModbusTest1.operatorStation.ethernet.fcsChecker incomingDataRate:vector ETV
attr interpolationmode linear
attr recordingmode vector
attr source "throughput(merge(packetPushedIn, packetPulledIn))"
attr title "incoming data rate"
attr unit bps
vector 38 ModbusTest1.operatorStation.ethernet.fcsChecker outgoingPacketLengths:vector ETV
attr interpolationmode none
attr recordingmode vector
attr source "packetLength(merge(packetPushedOut, packetPulledOut))"
attr title "outgoing packet lengths"
attr unit b
vector 39 ModbusTest1.operatorStation.ethernet.fcsChecker outgoingDataRate:vector ETV
attr interpolationmode linear
attr recordingmode vector
attr source "throughput(merge(packetPushedOut, packetPulledOut))"
attr title "outgoing data rate"
attr unit bps
vector 40 ModbusTest1.operatorStation.ethernet.fcsChecker droppedPacketLengths:vector ETV
attr interpolationmode none
attr recordingmode vector
attr source packetLength(packetDropped)
attr title "dropped packet lengths"
attr unit b
vector 41 ModbusTest1.operatorStation.ethernet.fcsChecker droppedDataRate:vector ETV
attr interpolationmode linear
attr recordingmode vector
attr source throughput(packetDropped)
attr title "dropped data rate"
attr unit bps
vector 42 ModbusTest1.operatorStation.ethernet.fcsChecker flowIncomingPacketLengths:vector ETV
attr interpolationmode none
attr recordingmode vector
attr source "packetLength(demuxFlow(merge(packetPushedIn, packetPulledIn)))"
attr title "flow specific incoming packet lengths"
attr unit b
vector 43 ModbusTest1.operatorStation.ethernet.fcsChecker flowIncomingDataRate:vector ETV
attr interpolationmode linear
attr recordingmode vector
attr source "throughput(demuxFlow(merge(packetPushedIn, packetPulledIn)))"
attr title "flow specific incoming data rate"
attr unit bps
vector 44 ModbusTest1.operatorStation.ethernet.fcsChecker flowOutgoingPacketLengths:vector ETV
attr interpolationmode none
attr recordingmode vector
attr source "packetLength(demuxFlow(merge(packetPushedOut, packetPulledOut)))"
attr title "flow specific outgoing packet lengths"
attr unit b
vector 45 ModbusTest1.operatorStation.ethernet.fcsChecker flowOutgoingDataRate:vector ETV
attr interpolationmode linear
attr recordingmode vector
attr source "throughput(demuxFlow(merge(packetPushedOut, packetPulledOut)))"
attr title "flow specific outgoing data rate"
attr unit bps
vector 46 ModbusTest1.operatorStation.ethernet.fcsChecker flowDroppedPacketLengths:vector ETV
attr interpolationmode none
attr recordingmode vector
attr source packetLength(demuxFlow(packetDropped))
attr title "flow specific dropped packet lengths"
attr unit b
vector 47 ModbusTest1.operatorStation.ethernet.fcsChecker flowDroppedDataRate:vector ETV
attr interpolationmode linear
attr recordingmode vector
attr source throughput(demuxFlow(packetDropped))
attr title "flow specific dropped data rate"
attr unit bps
vector 48 ModbusTest1.operatorStation.lo[0].lo rcvdPkFromHl:vector(packetBytes) ETV
attr interpolationmode none
attr recordingmode vector(packetBytes)
attr source packetReceivedFromUpper
attr title "packets received from higher layer, packetBytes"
vector 49 ModbusTest1.operatorStation.lo[0].lo passedUpPk:vector(packetBytes) ETV
attr interpolationmode none
attr recordingmode vector(packetBytes)
attr source packetSentToUpper
attr title "packets passed to higher layer, packetBytes"
vector 50 ModbusTest1.operatorStation.lo[0] packetDropInterfaceDown:vector(packetBytes) ETV
attr interpolationmode none
attr recordingmode vector(packetBytes)
attr source packetDropReasonIsInterfaceDown(packetDropped)
attr title "packet drops: interface down, packetBytes"
vector 51 ModbusTest1.operatorStation.lo[0] packetDropNoCarrier:vector(packetBytes) ETV
attr interpolationmode none
attr recordingmode vector(packetBytes)
attr source packetDropReasonIsNoCarrier(packetDropped)
attr title "packet drops: no carrier, packetBytes"
vector 52 ModbusTest1.operatorStation.eth[0].macLayer.queue queueLength:vector ETV
attr autoWarmupFilter false
attr interpolationmode sample-hold
attr recordingmode vector
attr source "warmup(atomic(constant0(packetPushEnded) + count(packetPushStarted) - count(packetPulled) - count(packetRemoved) - count(packetDropped)))"
attr title "queue length"
attr unit pk
vector 53 ModbusTest1.operatorStation.eth[0].macLayer.queue queueBitLength:vector ETV
attr autoWarmupFilter false
attr interpolationmode sample-hold
attr recordingmode vector
attr source "warmup(atomic(constant0(packetPushEnded) + sum(packetLength(packetPushStarted)) - sum(packetLength(packetPulled)) - sum(packetLength(packetRemoved)) - sum(packetLength(packetDropped))))"
attr title "queue bit length"
attr unit b
vector 54 ModbusTest1.operatorStation.eth[0].macLayer.queue queueingTime:vector ETV
attr interpolationmode none
attr recordingmode vector
attr source queueingTime(packetPulled)
attr title "queueing times"
attr unit s
vector 55 ModbusTest1.operatorStation.eth[0].macLayer.queue incomingPacketLengths:vector ETV
attr interpolationmode none
attr recordingmode vector
attr source packetLength(packetPushStarted)
attr title "incoming packet lengths"
attr unit b
vector 56 ModbusTest1.operatorStation.eth[0].macLayer.queue incomingDataRate:vector ETV
attr interpolationmode linear
attr recordingmode vector
attr source throughput(packetPushStarted)
attr title "incoming datarate"
attr unit bps
vector 57 ModbusTest1.operatorStation.eth[0].macLayer.queue outgoingPacketLengths:vector ETV
attr interpolationmode none
attr recordingmode vector
attr source packetLength(packetPulled)
attr title "outgoing packet lengths"
attr unit b
vector 58 ModbusTest1.operatorStation.eth[0].macLayer.queue outgoingDataRate:vector ETV
attr interpolationmode linear
attr recordingmode vector
attr source throughput(packetPulled)
attr title "outgoing datarate"
attr unit bps
vector 59 ModbusTest1.operatorStation.eth[0].macLayer.queue droppedPacketLengthsQueueOverflow:vector ETV
attr interpolationmode none
attr recordingmode vector
attr source packetLength(packetDropReasonIsQueueOverflow(packetDropped))
attr title "dropped packet lengths: queue overflow"
attr unit b
vector 60 ModbusTest1.operatorStation.eth[0].macLayer.queue flowQueueingTime:vector ETV
attr interpolationmode none
attr recordingmode vector
attr source queueingTime(demuxFlow(packetPulled))
attr title "flow queueing times"
attr unit s
vector 61 ModbusTest1.operatorStation.eth[0].macLayer.queue flowIncomingDataRate:vector ETV
attr interpolationmode linear
attr recordingmode vector
attr source throughput(flowPacketLength(demuxFlow(packetPushStarted)))
attr title "flow specific incoming data rate"
attr unit bps
vector 62 ModbusTest1.operatorStation.eth[0].macLayer.queue flowOutgoingDataRate:vector ETV
attr interpolationmode linear
attr recordingmode vector
attr source throughput(flowPacketLength(demuxFlow(packetPulled)))
attr title "flow specific outgoing data rate"
attr unit bps
vector 63 ModbusTest1.operatorStation.eth[0].macLayer.server incomingPacketLengths:vector ETV
attr interpolationmode none
attr recordingmode vector
attr source packetLength(packetPulled)
attr title "incoming packet lengths"
attr unit b
vector 64 ModbusTest1.operatorStation.eth[0].macLayer.server incomingDataRate:vector ETV
attr interpolationmode linear
attr recordingmode vector
attr source throughput(packetPulled)
attr title "incoming datarate"
attr unit bps
vector 65 ModbusTest1.operatorStation.eth[0].macLayer.server outgoingPacketLengths:vector ETV
attr interpolationmode none
attr recordingmode vector
attr source packetLength(packetPushed)
attr title "outgoing packet lengths"
attr unit b
vector 66 ModbusTest1.operatorStation.eth[0].macLayer.server outgoingDataRate:vector ETV
attr interpolationmode linear
attr recordingmode vector
attr source throughput(packetPushed)
attr title "outgoing datarate"
attr unit bps
vector 67 ModbusTest1.operatorStation.eth[0].macLayer.outboundEmitter incomingPacketLengths:vector ETV
attr interpolationmode none
attr recordingmode vector
attr source "packetLength(merge(packetPushedIn, packetPulledIn))"
attr title "incoming packet lengths"
attr unit b
vector 68 ModbusTest1.operatorStation.eth[0].macLayer.outboundEmitter incomingDataRate:vector ETV
attr interpolationmode linear
attr recordingmode vector
attr source "throughput(merge(packetPushedIn, packetPulledIn))"
attr title "incoming data rate"
attr unit bps
vector 69 ModbusTest1.operatorStation.eth[0].macLayer.outboundEmitter outgoingPacketLengths:vector ETV
attr interpolationmode none
attr recordingmode vector
attr source "packetLength(merge(packetPushedOut, packetPulledOut))"
attr title "outgoing packet lengths"
attr unit b
vector 70 ModbusTest1.operatorStation.eth[0].macLayer.outboundEmitter outgoingDataRate:vector ETV
attr interpolationmode linear
attr recordingmode vector
attr source "throughput(merge(packetPushedOut, packetPulledOut))"
attr title "outgoing data rate"
attr unit bps
vector 71 ModbusTest1.operatorStation.eth[0].macLayer.outboundEmitter flowIncomingPacketLengths:vector ETV
attr interpolationmode none
attr recordingmode vector
attr source "packetLength(demuxFlow(merge(packetPushedIn, packetPulledIn)))"
attr title "flow specific incoming packet lengths"
attr unit b
vector 72 ModbusTest1.operatorStation.eth[0].macLayer.outboundEmitter flowIncomingDataRate:vector ETV
attr interpolationmode linear
attr recordingmode vector
attr source "throughput(demuxFlow(merge(packetPushedIn, packetPulledIn)))"
attr title "flow specific incoming data rate"
attr unit bps
vector 73 ModbusTest1.operatorStation.eth[0].macLayer.outboundEmitter flowOutgoingPacketLengths:vector ETV
attr interpolationmode none
attr recordingmode vector
attr source "packetLength(demuxFlow(merge(packetPushedOut, packetPulledOut)))"
attr title "flow specific outgoing packet lengths"
attr unit b
vector 74 ModbusTest1.operatorStation.eth[0].macLayer.outboundEmitter flowOutgoingDataRate:vector ETV
attr interpolationmode linear
attr recordingmode vector
attr source "throughput(demuxFlow(merge(packetPushedOut, packetPulledOut)))"
attr title "flow specific outgoing data rate"
attr unit bps
vector 75 ModbusTest1.operatorStation.eth[0].macLayer.fcsChecker incomingPacketLengths:vector ETV
attr interpolationmode none
attr recordingmode vector
attr source "packetLength(merge(packetPushedIn, packetPulledIn))"
attr title "incoming packet lengths"
attr unit b
vector 76 ModbusTest1.operatorStation.eth[0].macLayer.fcsChecker incomingDataRate:vector ETV
attr interpolationmode linear
attr recordingmode vector
attr source "throughput(merge(packetPushedIn, packetPulledIn))"
attr title "incoming data rate"
attr unit bps
vector 77 ModbusTest1.operatorStation.eth[0].macLayer.fcsChecker outgoingPacketLengths:vector ETV
attr interpolationmode none
attr recordingmode vector
attr source "packetLength(merge(packetPushedOut, packetPulledOut))"
attr title "outgoing packet lengths"
attr unit b
vector 78 ModbusTest1.operatorStation.eth[0].macLayer.fcsChecker outgoingDataRate:vector ETV
attr interpolationmode linear
attr recordingmode vector
attr source "throughput(merge(packetPushedOut, packetPulledOut))"
attr title "outgoing data rate"
attr unit bps
vector 79 ModbusTest1.operatorStation.eth[0].macLayer.fcsChecker droppedPacketLengths:vector ETV
attr interpolationmode none
attr recordingmode vector
attr source packetLength(packetDropped)
attr title "dropped packet lengths"
attr unit b
vector 80 ModbusTest1.operatorStation.eth[0].macLayer.fcsChecker droppedDataRate:vector ETV
attr interpolationmode linear
attr recordingmode vector
attr source throughput(packetDropped)
attr title "dropped data rate"
attr unit bps
vector 81 ModbusTest1.operatorStation.eth[0].macLayer.fcsChecker flowIncomingPacketLengths:vector ETV
attr interpolationmode none
attr recordingmode vector
attr source "packetLength(demuxFlow(merge(packetPushedIn, packetPulledIn)))"
attr title "flow specific incoming packet lengths"
attr unit b
vector 82 ModbusTest1.operatorStation.eth[0].macLayer.fcsChecker flowIncomingDataRate:vector ETV
attr interpolationmode linear
attr recordingmode vector
attr source "throughput(demuxFlow(merge(packetPushedIn, packetPulledIn)))"
attr title "flow specific incoming data rate"
attr unit bps
vector 83 ModbusTest1.operatorStation.eth[0].macLayer.fcsChecker flowOutgoingPacketLengths:vector ETV
attr interpolationmode none
attr recordingmode vector
attr source "packetLength(demuxFlow(merge(packetPushedOut, packetPulledOut)))"
attr title "flow specific outgoing packet lengths"
attr unit b
vector 84 ModbusTest1.operatorStation.eth[0].macLayer.fcsChecker flowOutgoingDataRate:vector ETV
attr interpolationmode linear
attr recordingmode vector
attr source "throughput(demuxFlow(merge(packetPushedOut, packetPulledOut)))"
attr title "flow specific outgoing data rate"
attr unit bps
vector 85 ModbusTest1.operatorStation.eth[0].macLayer.fcsChecker flowDroppedPacketLengths:vector ETV
attr interpolationmode none
attr recordingmode vector
attr source packetLength(demuxFlow(packetDropped))
attr title "flow specific dropped packet lengths"
attr unit b
vector 86 ModbusTest1.operatorStation.eth[0].macLayer.fcsChecker flowDroppedDataRate:vector ETV
attr interpolationmode linear
attr recordingmode vector
attr source throughput(demuxFlow(packetDropped))
attr title "flow specific dropped data rate"
attr unit bps
vector 87 ModbusTest1.operatorStation.eth[0].macLayer.inboundEmitter incomingPacketLengths:vector ETV
attr interpolationmode none
attr recordingmode vector
attr source "packetLength(merge(packetPushedIn, packetPulledIn))"
attr title "incoming packet lengths"
attr unit b
vector 88 ModbusTest1.operatorStation.eth[0].macLayer.inboundEmitter incomingDataRate:vector ETV
attr interpolationmode linear
attr recordingmode vector
attr source "throughput(merge(packetPushedIn, packetPulledIn))"
attr title "incoming data rate"
attr unit bps
vector 89 ModbusTest1.operatorStation.eth[0].macLayer.inboundEmitter outgoingPacketLengths:vector ETV
attr interpolationmode none
attr recordingmode vector
attr source "packetLength(merge(packetPushedOut, packetPulledOut))"
attr title "outgoing packet lengths"
attr unit b
vector 90 ModbusTest1.operatorStation.eth[0].macLayer.inboundEmitter outgoingDataRate:vector ETV
attr interpolationmode linear
attr recordingmode vector
attr source "throughput(merge(packetPushedOut, packetPulledOut))"
attr title "outgoing data rate"
attr unit bps
vector 91 ModbusTest1.operatorStation.eth[0].macLayer.inboundEmitter flowIncomingPacketLengths:vector ETV
attr interpolationmode none
attr recordingmode vector
attr source "packetLength(demuxFlow(merge(packetPushedIn, packetPulledIn)))"
attr title "flow specific incoming packet lengths"
attr unit b
vector 92 ModbusTest1.operatorStation.eth[0].macLayer.inboundEmitter flowIncomingDataRate:vector ETV
attr interpolationmode linear
attr recordingmode vector
attr source "throughput(demuxFlow(merge(packetPushedIn, packetPulledIn)))"
attr title "flow specific incoming data rate"
attr unit bps
vector 93 ModbusTest1.operatorStation.eth[0].macLayer.inboundEmitter flowOutgoingPacketLengths:vector ETV
attr interpolationmode none
attr recordingmode vector
attr source "packetLength(demuxFlow(merge(packetPushedOut, packetPulledOut)))"
attr title "flow specific outgoing packet lengths"
attr unit b
vector 94 ModbusTest1.operatorStation.eth[0].macLayer.inboundEmitter flowOutgoingDataRate:vector ETV
attr interpolationmode linear
attr recordingmode vector
attr source "throughput(demuxFlow(merge(packetPushedOut, packetPulledOut)))"
attr title "flow specific outgoing data rate"
attr unit bps
vector 95 ModbusTest1.operatorStation.eth[0].phyLayer.phyHeaderInserter incomingPacketLengths:vector ETV
attr interpolationmode none
attr recordingmode vector
attr source "packetLength(merge(packetPushedIn, packetPulledIn))"
attr title "incoming packet lengths"
attr unit b
vector 96 ModbusTest1.operatorStation.eth[0].phyLayer.phyHeaderInserter incomingDataRate:vector ETV
attr interpolationmode linear
attr recordingmode vector
attr source "throughput(merge(packetPushedIn, packetPulledIn))"
attr title "incoming data rate"
attr unit bps
vector 97 ModbusTest1.operatorStation.eth[0].phyLayer.phyHeaderInserter outgoingPacketLengths:vector ETV
attr interpolationmode none
attr recordingmode vector
attr source "packetLength(merge(packetPushedOut, packetPulledOut))"
attr title "outgoing packet lengths"
attr unit b
vector 98 ModbusTest1.operatorStation.eth[0].phyLayer.phyHeaderInserter outgoingDataRate:vector ETV
attr interpolationmode linear
attr recordingmode vector
attr source "throughput(merge(packetPushedOut, packetPulledOut))"
attr title "outgoing data rate"
attr unit bps
vector 99 ModbusTest1.operatorStation.eth[0].phyLayer.phyHeaderInserter flowIncomingPacketLengths:vector ETV
attr interpolationmode none
attr recordingmode vector
attr source "packetLength(demuxFlow(merge(packetPushedIn, packetPulledIn)))"
attr title "flow specific incoming packet lengths"
attr unit b
vector 100 ModbusTest1.operatorStation.eth[0].phyLayer.phyHeaderInserter flowIncomingDataRate:vector ETV
attr interpolationmode linear
attr recordingmode vector
attr source "throughput(demuxFlow(merge(packetPushedIn, packetPulledIn)))"
attr title "flow specific incoming data rate"
attr unit bps
vector 101 ModbusTest1.operatorStation.eth[0].phyLayer.phyHeaderInserter flowOutgoingPacketLengths:vector ETV
attr interpolationmode none
attr recordingmode vector
attr source "packetLength(demuxFlow(merge(packetPushedOut, packetPulledOut)))"
attr title "flow specific outgoing packet lengths"
attr unit b
vector 102 ModbusTest1.operatorStation.eth[0].phyLayer.phyHeaderInserter flowOutgoingDataRate:vector ETV
attr interpolationmode linear
attr recordingmode vector
attr source "throughput(demuxFlow(merge(packetPushedOut, packetPulledOut)))"
attr title "flow specific outgoing data rate"
attr unit bps
vector 103 ModbusTest1.operatorStation.eth[0].phyLayer.interFrameGapInserter interpacketGap:vector ETV
attr interpolationmode sample-hold
attr recordingmode vector
attr source "count(interpacketGapStarted) - count(interpacketGapEnded)"
attr title "interpacket gap state"
attr type int
vector 104 ModbusTest1.operatorStation.eth[0].phyLayer.outboundEmitter incomingPacketLengths:vector ETV
attr interpolationmode none
attr recordingmode vector
attr source "packetLength(merge(packetPushedIn, packetPulledIn))"
attr title "incoming packet lengths"
attr unit b
vector 105 ModbusTest1.operatorStation.eth[0].phyLayer.outboundEmitter incomingDataRate:vector ETV
attr interpolationmode linear
attr recordingmode vector
attr source "throughput(merge(packetPushedIn, packetPulledIn))"
attr title "incoming data rate"
attr unit bps
vector 106 ModbusTest1.operatorStation.eth[0].phyLayer.outboundEmitter outgoingPacketLengths:vector ETV
attr interpolationmode none
attr recordingmode vector
attr source "packetLength(merge(packetPushedOut, packetPulledOut))"
attr title "outgoing packet lengths"
attr unit b
vector 107 ModbusTest1.operatorStation.eth[0].phyLayer.outboundEmitter outgoingDataRate:vector ETV
attr interpolationmode linear
attr recordingmode vector
attr source "throughput(merge(packetPushedOut, packetPulledOut))"
attr title "outgoing data rate"
attr unit bps
vector 108 ModbusTest1.operatorStation.eth[0].phyLayer.outboundEmitter flowIncomingPacketLengths:vector ETV
attr interpolationmode none
attr recordingmode vector
attr source "packetLength(demuxFlow(merge(packetPushedIn, packetPulledIn)))"
attr title "flow specific incoming packet lengths"
attr unit b
vector 109 ModbusTest1.operatorStation.eth[0].phyLayer.outboundEmitter flowIncomingDataRate:vector ETV
attr interpolationmode linear
attr recordingmode vector
attr source "throughput(demuxFlow(merge(packetPushedIn, packetPulledIn)))"
attr title "flow specific incoming data rate"
attr unit bps
vector 110 ModbusTest1.operatorStation.eth[0].phyLayer.outboundEmitter flowOutgoingPacketLengths:vector ETV
attr interpolationmode none
attr recordingmode vector
attr source "packetLength(demuxFlow(merge(packetPushedOut, packetPulledOut)))"
attr title "flow specific outgoing packet lengths"
attr unit b
vector 111 ModbusTest1.operatorStation.eth[0].phyLayer.outboundEmitter flowOutgoingDataRate:vector ETV
attr interpolationmode linear
attr recordingmode vector
attr source "throughput(demuxFlow(merge(packetPushedOut, packetPulledOut)))"
attr title "flow specific outgoing data rate"
attr unit bps
vector 112 ModbusTest1.operatorStation.eth[0].phyLayer.transmitter transmitting:vector ETV
attr interpolationmode sample-hold
attr recordingmode vector
attr source "count(transmissionStarted) - count(transmissionEnded)"
attr title "transmitting state"
attr type int
vector 113 ModbusTest1.operatorStation.eth[0].phyLayer.transmitter throughput:vector ETV
attr interpolationmode linear
attr recordingmode vector
attr source throughput(transmissionEnded)
attr title throughput
attr unit bps
vector 114 ModbusTest1.operatorStation.eth[0].phyLayer.transmitter utilization:vector ETV
attr interpolationmode linear
attr recordingmode vector
attr source "100 * utilization(count(transmissionStarted) - count(transmissionEnded))"
attr title utilization
attr unit %
vector 115 ModbusTest1.operatorStation.eth[0].phyLayer.transmitter transmissionTime:vector ETV
attr interpolationmode none
attr recordingmode vector
attr source packetDuration(transmissionEnded)
attr title "transmission time"
attr unit s
vector 116 ModbusTest1.operatorStation.eth[0].phyLayer.transmitter flowTransmissionTime:vector ETV
attr interpolationmode none
attr recordingmode vector
attr source packetDuration(demuxFlow(transmissionEnded))
attr title "flow transmission time"
attr unit s
vector 117 ModbusTest1.operatorStation.eth[0].phyLayer.phyHeaderChecker incomingPacketLengths:vector ETV
attr interpolationmode none
attr recordingmode vector
attr source "packetLength(merge(packetPushedIn, packetPulledIn))"
attr title "incoming packet lengths"
attr unit b
vector 118 ModbusTest1.operatorStation.eth[0].phyLayer.phyHeaderChecker incomingDataRate:vector ETV
attr interpolationmode linear
attr recordingmode vector
attr source "throughput(merge(packetPushedIn, packetPulledIn))"
attr title "incoming data rate"
attr unit bps
vector 119 ModbusTest1.operatorStation.eth[0].phyLayer.phyHeaderChecker outgoingPacketLengths:vector ETV
attr interpolationmode none
attr recordingmode vector
attr source "packetLength(merge(packetPushedOut, packetPulledOut))"
attr title "outgoing packet lengths"
attr unit b
vector 120 ModbusTest1.operatorStation.eth[0].phyLayer.phyHeaderChecker outgoingDataRate:vector ETV
attr interpolationmode linear
attr recordingmode vector
attr source "throughput(merge(packetPushedOut, packetPulledOut))"
attr title "outgoing data rate"
attr unit bps
vector 121 ModbusTest1.operatorStation.eth[0].phyLayer.phyHeaderChecker droppedPacketLengths:vector ETV
attr interpolationmode none
attr recordingmode vector
attr source packetLength(packetDropped)
attr title "dropped packet lengths"
attr unit b
vector 122 ModbusTest1.operatorStation.eth[0].phyLayer.phyHeaderChecker droppedDataRate:vector ETV
attr interpolationmode linear
attr recordingmode vector
attr source throughput(packetDropped)
attr title "dropped data rate"
attr unit bps
vector 123 ModbusTest1.operatorStation.eth[0].phyLayer.phyHeaderChecker flowIncomingPacketLengths:vector ETV
attr interpolationmode none
attr recordingmode vector
attr source "packetLength(demuxFlow(merge(packetPushedIn, packetPulledIn)))"
attr title "flow specific incoming packet lengths"
attr unit b
vector 124 ModbusTest1.operatorStation.eth[0].phyLayer.phyHeaderChecker flowIncomingDataRate:vector ETV
attr interpolationmode linear
attr recordingmode vector
attr source "throughput(demuxFlow(merge(packetPushedIn, packetPulledIn)))"
attr title "flow specific incoming data rate"
attr unit bps
vector 125 ModbusTest1.operatorStation.eth[0].phyLayer.phyHeaderChecker flowOutgoingPacketLengths:vector ETV
attr interpolationmode none
attr recordingmode vector
attr source "packetLength(demuxFlow(merge(packetPushedOut, packetPulledOut)))"
attr title "flow specific outgoing packet lengths"
attr unit b
vector 126 ModbusTest1.operatorStation.eth[0].phyLayer.phyHeaderChecker flowOutgoingDataRate:vector ETV
attr interpolationmode linear
attr recordingmode vector
attr source "throughput(demuxFlow(merge(packetPushedOut, packetPulledOut)))"
attr title "flow specific outgoing data rate"
attr unit bps
vector 127 ModbusTest1.operatorStation.eth[0].phyLayer.phyHeaderChecker flowDroppedPacketLengths:vector ETV
attr interpolationmode none
attr recordingmode vector
attr source packetLength(demuxFlow(packetDropped))
attr title "flow specific dropped packet lengths"
attr unit b
vector 128 ModbusTest1.operatorStation.eth[0].phyLayer.phyHeaderChecker flowDroppedDataRate:vector ETV
attr interpolationmode linear
attr recordingmode vector
attr source throughput(demuxFlow(packetDropped))
attr title "flow specific dropped data rate"
attr unit bps
vector 129 ModbusTest1.operatorStation.eth[0].phyLayer.inboundEmitter incomingPacketLengths:vector ETV
attr interpolationmode none
attr recordingmode vector
attr source "packetLength(merge(packetPushedIn, packetPulledIn))"
attr title "incoming packet lengths"
attr unit b
vector 130 ModbusTest1.operatorStation.eth[0].phyLayer.inboundEmitter incomingDataRate:vector ETV
attr interpolationmode linear
attr recordingmode vector
attr source "throughput(merge(packetPushedIn, packetPulledIn))"
attr title "incoming data rate"
attr unit bps
vector 131 ModbusTest1.operatorStation.eth[0].phyLayer.inboundEmitter outgoingPacketLengths:vector ETV
attr interpolationmode none
attr recordingmode vector
attr source "packetLength(merge(packetPushedOut, packetPulledOut))"
attr title "outgoing packet lengths"
attr unit b
vector 132 ModbusTest1.operatorStation.eth[0].phyLayer.inboundEmitter outgoingDataRate:vector ETV
attr interpolationmode linear
attr recordingmode vector
attr source "throughput(merge(packetPushedOut, packetPulledOut))"
attr title "outgoing data rate"
attr unit bps
vector 133 ModbusTest1.operatorStation.eth[0].phyLayer.inboundEmitter flowIncomingPacketLengths:vector ETV
attr interpolationmode none
attr recordingmode vector
attr source "packetLength(demuxFlow(merge(packetPushedIn, packetPulledIn)))"
attr title "flow specific incoming packet lengths"
attr unit b
vector 134 ModbusTest1.operatorStation.eth[0].phyLayer.inboundEmitter flowIncomingDataRate:vector ETV
attr interpolationmode linear
attr recordingmode vector
attr source "throughput(demuxFlow(merge(packetPushedIn, packetPulledIn)))"
attr title "flow specific incoming data rate"
attr unit bps
vector 135 ModbusTest1.operatorStation.eth[0].phyLayer.inboundEmitter flowOutgoingPacketLengths:vector ETV
attr interpolationmode none
attr recordingmode vector
attr source "packetLength(demuxFlow(merge(packetPushedOut, packetPulledOut)))"
attr title "flow specific outgoing packet lengths"
attr unit b
vector 136 ModbusTest1.operatorStation.eth[0].phyLayer.inboundEmitter flowOutgoingDataRate:vector ETV
attr interpolationmode linear
attr recordingmode vector
attr source "throughput(demuxFlow(merge(packetPushedOut, packetPulledOut)))"
attr title "flow specific outgoing data rate"
attr unit bps
vector 137 ModbusTest1.operatorStation.eth[0].phyLayer.receiver throughput:vector ETV
attr interpolationmode linear
attr recordingmode vector
attr source throughput(receptionEnded)
attr title throughput
attr unit bps
vector 138 ModbusTest1.operatorStation.eth[0].phyLayer.receiver receptionTime:vector ETV
attr interpolationmode none
attr recordingmode vector
attr source packetDuration(receptionEnded)
attr title "reception time"
attr unit s
vector 139 ModbusTest1.operatorStation.eth[0].phyLayer.receiver flowReceptionTime:vector ETV
attr interpolationmode none
attr recordingmode vector
attr source packetDuration(demuxFlow(receptionEnded))
attr title "flow reception time"
attr unit s
vector 140 ModbusTest1.operatorStation.eth[0] packetDropInterfaceDown:vector(packetBytes) ETV
attr interpolationmode none
attr recordingmode vector(packetBytes)
attr source packetDropReasonIsInterfaceDown(packetDropped)
attr title "packet drops: interface down, packetBytes"
vector 141 ModbusTest1.operatorStation.eth[0] packetDropNoCarrier:vector(packetBytes) ETV
attr interpolationmode none
attr recordingmode vector(packetBytes)
attr source packetDropReasonIsNoCarrier(packetDropped)
attr title "packet drops: no carrier, packetBytes"
vector 142 ModbusTest1.operatorStation.eth[1].macLayer.queue queueLength:vector ETV
attr autoWarmupFilter false
attr interpolationmode sample-hold
attr recordingmode vector
attr source "warmup(atomic(constant0(packetPushEnded) + count(packetPushStarted) - count(packetPulled) - count(packetRemoved) - count(packetDropped)))"
attr title "queue length"
attr unit pk
vector 143 ModbusTest1.operatorStation.eth[1].macLayer.queue queueBitLength:vector ETV
attr autoWarmupFilter false
attr interpolationmode sample-hold
attr recordingmode vector
attr source "warmup(atomic(constant0(packetPushEnded) + sum(packetLength(packetPushStarted)) - sum(packetLength(packetPulled)) - sum(packetLength(packetRemoved)) - sum(packetLength(packetDropped))))"
attr title "queue bit length"
attr unit b
vector 144 ModbusTest1.operatorStation.eth[1].macLayer.queue queueingTime:vector ETV
attr interpolationmode none
attr recordingmode vector
attr source queueingTime(packetPulled)
attr title "queueing times"
attr unit s
vector 145 ModbusTest1.operatorStation.eth[1].macLayer.queue incomingPacketLengths:vector ETV
attr interpolationmode none
attr recordingmode vector
attr source packetLength(packetPushStarted)
attr title "incoming packet lengths"
attr unit b
vector 146 ModbusTest1.operatorStation.eth[1].macLayer.queue incomingDataRate:vector ETV
attr interpolationmode linear
attr recordingmode vector
attr source throughput(packetPushStarted)
attr title "incoming datarate"
attr unit bps
vector 147 ModbusTest1.operatorStation.eth[1].macLayer.queue outgoingPacketLengths:vector ETV
attr interpolationmode none
attr recordingmode vector
attr source packetLength(packetPulled)
attr title "outgoing packet lengths"
attr unit b
vector 148 ModbusTest1.operatorStation.eth[1].macLayer.queue outgoingDataRate:vector ETV
attr interpolationmode linear
attr recordingmode vector
attr source throughput(packetPulled)
attr title "outgoing datarate"
attr unit bps
vector 149 ModbusTest1.operatorStation.eth[1].macLayer.queue droppedPacketLengthsQueueOverflow:vector ETV
attr interpolationmode none
attr recordingmode vector
attr source packetLength(packetDropReasonIsQueueOverflow(packetDropped))
attr title "dropped packet lengths: queue overflow"
attr unit b
vector 150 ModbusTest1.operatorStation.eth[1].macLayer.queue flowQueueingTime:vector ETV
attr interpolationmode none
attr recordingmode vector
attr source queueingTime(demuxFlow(packetPulled))
attr title "flow queueing times"
attr unit s
vector 151 ModbusTest1.operatorStation.eth[1].macLayer.queue flowIncomingDataRate:vector ETV
attr interpolationmode linear
attr recordingmode vector
attr source throughput(flowPacketLength(demuxFlow(packetPushStarted)))
attr title "flow specific incoming data rate"
attr unit bps
vector 152 ModbusTest1.operatorStation.eth[1].macLayer.queue flowOutgoingDataRate:vector ETV
attr interpolationmode linear
attr recordingmode vector
attr source throughput(flowPacketLength(demuxFlow(packetPulled)))
attr title "flow specific outgoing data rate"
attr unit bps
vector 153 ModbusTest1.operatorStation.eth[1].macLayer.server incomingPacketLengths:vector ETV
attr interpolationmode none
attr recordingmode vector
attr source packetLength(packetPulled)
attr title "incoming packet lengths"
attr unit b
vector 154 ModbusTest1.operatorStation.eth[1].macLayer.server incomingDataRate:vector ETV
attr interpolationmode linear
attr recordingmode vector
attr source throughput(packetPulled)
attr title "incoming datarate"
attr unit bps
vector 155 ModbusTest1.operatorStation.eth[1].macLayer.server outgoingPacketLengths:vector ETV
attr interpolationmode none
attr recordingmode vector
attr source packetLength(packetPushed)
attr title "outgoing packet lengths"
attr unit b
vector 156 ModbusTest1.operatorStation.eth[1].macLayer.server outgoingDataRate:vector ETV
attr interpolationmode linear
attr recordingmode vector
attr source throughput(packetPushed)
attr title "outgoing datarate"
attr unit bps
vector 157 ModbusTest1.operatorStation.eth[1].macLayer.outboundEmitter incomingPacketLengths:vector ETV
attr interpolationmode none
attr recordingmode vector
attr source "packetLength(merge(packetPushedIn, packetPulledIn))"
attr title "incoming packet lengths"
attr unit b
vector 158 ModbusTest1.operatorStation.eth[1].macLayer.outboundEmitter incomingDataRate:vector ETV
attr interpolationmode linear
attr recordingmode vector
attr source "throughput(merge(packetPushedIn, packetPulledIn))"
attr title "incoming data rate"
attr unit bps
vector 159 ModbusTest1.operatorStation.eth[1].macLayer.outboundEmitter outgoingPacketLengths:vector ETV
attr interpolationmode none
attr recordingmode vector
attr source "packetLength(merge(packetPushedOut, packetPulledOut))"
attr title "outgoing packet lengths"
attr unit b
vector 160 ModbusTest1.operatorStation.eth[1].macLayer.outboundEmitter outgoingDataRate:vector ETV
attr interpolationmode linear
attr recordingmode vector
attr source "throughput(merge(packetPushedOut, packetPulledOut))"
attr title "outgoing data rate"
attr unit bps
vector 161 ModbusTest1.operatorStation.eth[1].macLayer.outboundEmitter flowIncomingPacketLengths:vector ETV
attr interpolationmode none
attr recordingmode vector
attr source "packetLength(demuxFlow(merge(packetPushedIn, packetPulledIn)))"
attr title "flow specific incoming packet lengths"
attr unit b
vector 162 ModbusTest1.operatorStation.eth[1].macLayer.outboundEmitter flowIncomingDataRate:vector ETV
attr interpolationmode linear
attr recordingmode vector
attr source "throughput(demuxFlow(merge(packetPushedIn, packetPulledIn)))"
attr title "flow specific incoming data rate"
attr unit bps
vector 163 ModbusTest1.operatorStation.eth[1].macLayer.outboundEmitter flowOutgoingPacketLengths:vector ETV
attr interpolationmode none
attr recordingmode vector
attr source "packetLength(demuxFlow(merge(packetPushedOut, packetPulledOut)))"
attr title "flow specific outgoing packet lengths"
attr unit b
vector 164 ModbusTest1.operatorStation.eth[1].macLayer.outboundEmitter flowOutgoingDataRate:vector ETV
attr interpolationmode linear
attr recordingmode vector
attr source "throughput(demuxFlow(merge(packetPushedOut, packetPulledOut)))"
attr title "flow specific outgoing data rate"
attr unit bps
vector 165 ModbusTest1.operatorStation.eth[1].macLayer.fcsChecker incomingPacketLengths:vector ETV
attr interpolationmode none
attr recordingmode vector
attr source "packetLength(merge(packetPushedIn, packetPulledIn))"
attr title "incoming packet lengths"
attr unit b
vector 166 ModbusTest1.operatorStation.eth[1].macLayer.fcsChecker incomingDataRate:vector ETV
attr interpolationmode linear
attr recordingmode vector
attr source "throughput(merge(packetPushedIn, packetPulledIn))"
attr title "incoming data rate"
attr unit bps
vector 167 ModbusTest1.operatorStation.eth[1].macLayer.fcsChecker outgoingPacketLengths:vector ETV
attr interpolationmode none
attr recordingmode vector
attr source "packetLength(merge(packetPushedOut, packetPulledOut))"
attr title "outgoing packet lengths"
attr unit b
vector 168 ModbusTest1.operatorStation.eth[1].macLayer.fcsChecker outgoingDataRate:vector ETV
attr interpolationmode linear
attr recordingmode vector
attr source "throughput(merge(packetPushedOut, packetPulledOut))"
attr title "outgoing data rate"
attr unit bps
vector 169 ModbusTest1.operatorStation.eth[1].macLayer.fcsChecker droppedPacketLengths:vector ETV
attr interpolationmode none
attr recordingmode vector
attr source packetLength(packetDropped)
attr title "dropped packet lengths"
attr unit b
vector 170 ModbusTest1.operatorStation.eth[1].macLayer.fcsChecker droppedDataRate:vector ETV
attr interpolationmode linear
attr recordingmode vector
attr source throughput(packetDropped)
attr title "dropped data rate"
attr unit bps
vector 171 ModbusTest1.operatorStation.eth[1].macLayer.fcsChecker flowIncomingPacketLengths:vector ETV
attr interpolationmode none
attr recordingmode vector
attr source "packetLength(demuxFlow(merge(packetPushedIn, packetPulledIn)))"
attr title "flow specific incoming packet lengths"
attr unit b
vector 172 ModbusTest1.operatorStation.eth[1].macLayer.fcsChecker flowIncomingDataRate:vector ETV
attr interpolationmode linear
attr recordingmode vector
attr source "throughput(demuxFlow(merge(packetPushedIn, packetPulledIn)))"
attr title "flow specific incoming data rate"
attr unit bps
vector 173 ModbusTest1.operatorStation.eth[1].macLayer.fcsChecker flowOutgoingPacketLengths:vector ETV
attr interpolationmode none
attr recordingmode vector
attr source "packetLength(demuxFlow(merge(packetPushedOut, packetPulledOut)))"
attr title "flow specific outgoing packet lengths"
attr unit b
vector 174 ModbusTest1.operatorStation.eth[1].macLayer.fcsChecker flowOutgoingDataRate:vector ETV
attr interpolationmode linear
attr recordingmode vector
attr source "throughput(demuxFlow(merge(packetPushedOut, packetPulledOut)))"
attr title "flow specific outgoing data rate"
attr unit bps
vector 175 ModbusTest1.operatorStation.eth[1].macLayer.fcsChecker flowDroppedPacketLengths:vector ETV
attr interpolationmode none
attr recordingmode vector
attr source packetLength(demuxFlow(packetDropped))
attr title "flow specific dropped packet lengths"
attr unit b
vector 176 ModbusTest1.operatorStation.eth[1].macLayer.fcsChecker flowDroppedDataRate:vector ETV
attr interpolationmode linear
attr recordingmode vector
attr source throughput(demuxFlow(packetDropped))
attr title "flow specific dropped data rate"
attr unit bps
vector 177 ModbusTest1.operatorStation.eth[1].macLayer.inboundEmitter incomingPacketLengths:vector ETV
attr interpolationmode none
attr recordingmode vector
attr source "packetLength(merge(packetPushedIn, packetPulledIn))"
attr title "incoming packet lengths"
attr unit b
vector 178 ModbusTest1.operatorStation.eth[1].macLayer.inboundEmitter incomingDataRate:vector ETV
attr interpolationmode linear
attr recordingmode vector
attr source "throughput(merge(packetPushedIn, packetPulledIn))"
attr title "incoming data rate"
attr unit bps
vector 179 ModbusTest1.operatorStation.eth[1].macLayer.inboundEmitter outgoingPacketLengths:vector ETV
attr interpolationmode none
attr recordingmode vector
attr source "packetLength(merge(packetPushedOut, packetPulledOut))"
attr title "outgoing packet lengths"
attr unit b
vector 180 ModbusTest1.operatorStation.eth[1].macLayer.inboundEmitter outgoingDataRate:vector ETV
attr interpolationmode linear
attr recordingmode vector
attr source "throughput(merge(packetPushedOut, packetPulledOut))"
attr title "outgoing data rate"
attr unit bps
vector 181 ModbusTest1.operatorStation.eth[1].macLayer.inboundEmitter flowIncomingPacketLengths:vector ETV
attr interpolationmode none
attr recordingmode vector
attr source "packetLength(demuxFlow(merge(packetPushedIn, packetPulledIn)))"
attr title "flow specific incoming packet lengths"
attr unit b
vector 182 ModbusTest1.operatorStation.eth[1].macLayer.inboundEmitter flowIncomingDataRate:vector ETV
attr interpolationmode linear
attr recordingmode vector
attr source "throughput(demuxFlow(merge(packetPushedIn, packetPulledIn)))"
attr title "flow specific incoming data rate"
attr unit bps
vector 183 ModbusTest1.operatorStation.eth[1].macLayer.inboundEmitter flowOutgoingPacketLengths:vector ETV
attr interpolationmode none
attr recordingmode vector
attr source "packetLength(demuxFlow(merge(packetPushedOut, packetPulledOut)))"
attr title "flow specific outgoing packet lengths"
attr unit b
vector 184 ModbusTest1.operatorStation.eth[1].macLayer.inboundEmitter flowOutgoingDataRate:vector ETV
attr interpolationmode linear
attr recordingmode vector
attr source "throughput(demuxFlow(merge(packetPushedOut, packetPulledOut)))"
attr title "flow specific outgoing data rate"
attr unit bps
vector 185 ModbusTest1.operatorStation.eth[1].phyLayer.phyHeaderInserter incomingPacketLengths:vector ETV
attr interpolationmode none
attr recordingmode vector
attr source "packetLength(merge(packetPushedIn, packetPulledIn))"
attr title "incoming packet lengths"
attr unit b
vector 186 ModbusTest1.operatorStation.eth[1].phyLayer.phyHeaderInserter incomingDataRate:vector ETV
attr interpolationmode linear
attr recordingmode vector
attr source "throughput(merge(packetPushedIn, packetPulledIn))"
attr title "incoming data rate"
attr unit bps
vector 187 ModbusTest1.operatorStation.eth[1].phyLayer.phyHeaderInserter outgoingPacketLengths:vector ETV
attr interpolationmode none
attr recordingmode vector
attr source "packetLength(merge(packetPushedOut, packetPulledOut))"
attr title "outgoing packet lengths"
attr unit b
vector 188 ModbusTest1.operatorStation.eth[1].phyLayer.phyHeaderInserter outgoingDataRate:vector ETV
attr interpolationmode linear
attr recordingmode vector
attr source "throughput(merge(packetPushedOut, packetPulledOut))"
attr title "outgoing data rate"
attr unit bps
vector 189 ModbusTest1.operatorStation.eth[1].phyLayer.phyHeaderInserter flowIncomingPacketLengths:vector ETV
attr interpolationmode none
attr recordingmode vector
attr source "packetLength(demuxFlow(merge(packetPushedIn, packetPulledIn)))"
attr title "flow specific incoming packet lengths"
attr unit b
vector 190 ModbusTest1.operatorStation.eth[1].phyLayer.phyHeaderInserter flowIncomingDataRate:vector ETV
attr interpolationmode linear
attr recordingmode vector
attr source "throughput(demuxFlow(merge(packetPushedIn, packetPulledIn)))"
attr title "flow specific incoming data rate"
attr unit bps
vector 191 ModbusTest1.operatorStation.eth[1].phyLayer.phyHeaderInserter flowOutgoingPacketLengths:vector ETV
attr interpolationmode none
attr recordingmode vector
attr source "packetLength(demuxFlow(merge(packetPushedOut, packetPulledOut)))"
attr title "flow specific outgoing packet lengths"
attr unit b
vector 192 ModbusTest1.operatorStation.eth[1].phyLayer.phyHeaderInserter flowOutgoingDataRate:vector ETV
attr interpolationmode linear
attr recordingmode vector
attr source "throughput(demuxFlow(merge(packetPushedOut, packetPulledOut)))"
attr title "flow specific outgoing data rate"
attr unit bps
vector 193 ModbusTest1.operatorStation.eth[1].phyLayer.interFrameGapInserter interpacketGap:vector ETV
attr interpolationmode sample-hold
attr recordingmode vector
attr source "count(interpacketGapStarted) - count(interpacketGapEnded)"
attr title "interpacket gap state"
attr type int
vector 194 ModbusTest1.operatorStation.eth[1].phyLayer.outboundEmitter incomingPacketLengths:vector ETV
attr interpolationmode none
attr recordingmode vector
attr source "packetLength(merge(packetPushedIn, packetPulledIn))"
attr title "incoming packet lengths"
attr unit b
vector 195 ModbusTest1.operatorStation.eth[1].phyLayer.outboundEmitter incomingDataRate:vector ETV
attr interpolationmode linear
attr recordingmode vector
attr source "throughput(merge(packetPushedIn, packetPulledIn))"
attr title "incoming data rate"
attr unit bps
vector 196 ModbusTest1.operatorStation.eth[1].phyLayer.outboundEmitter outgoingPacketLengths:vector ETV
attr interpolationmode none
attr recordingmode vector
attr source "packetLength(merge(packetPushedOut, packetPulledOut))"
attr title "outgoing packet lengths"
attr unit b
vector 197 ModbusTest1.operatorStation.eth[1].phyLayer.outboundEmitter outgoingDataRate:vector ETV
attr interpolationmode linear
attr recordingmode vector
attr source "throughput(merge(packetPushedOut, packetPulledOut))"
attr title "outgoing data rate"
attr unit bps
vector 198 ModbusTest1.operatorStation.eth[1].phyLayer.outboundEmitter flowIncomingPacketLengths:vector ETV
attr interpolationmode none
attr recordingmode vector
attr source "packetLength(demuxFlow(merge(packetPushedIn, packetPulledIn)))"
attr title "flow specific incoming packet lengths"
attr unit b
vector 199 ModbusTest1.operatorStation.eth[1].phyLayer.outboundEmitter flowIncomingDataRate:vector ETV
attr interpolationmode linear
attr recordingmode vector
attr source "throughput(demuxFlow(merge(packetPushedIn, packetPulledIn)))"
attr title "flow specific incoming data rate"
attr unit bps
vector 200 ModbusTest1.operatorStation.eth[1].phyLayer.outboundEmitter flowOutgoingPacketLengths:vector ETV
attr interpolationmode none
attr recordingmode vector
attr source "packetLength(demuxFlow(merge(packetPushedOut, packetPulledOut)))"
attr title "flow specific outgoing packet lengths"
attr unit b
vector 201 ModbusTest1.operatorStation.eth[1].phyLayer.outboundEmitter flowOutgoingDataRate:vector ETV
attr interpolationmode linear
attr recordingmode vector
attr source "throughput(demuxFlow(merge(packetPushedOut, packetPulledOut)))"
attr title "flow specific outgoing data rate"
attr unit bps
vector 202 ModbusTest1.operatorStation.eth[1].phyLayer.transmitter transmitting:vector ETV
attr interpolationmode sample-hold
attr recordingmode vector
attr source "count(transmissionStarted) - count(transmissionEnded)"
attr title "transmitting state"
attr type int
vector 203 ModbusTest1.operatorStation.eth[1].phyLayer.transmitter throughput:vector ETV
attr interpolationmode linear
attr recordingmode vector
attr source throughput(transmissionEnded)
attr title throughput
attr unit bps
vector 204 ModbusTest1.operatorStation.eth[1].phyLayer.transmitter utilization:vector ETV
attr interpolationmode linear
attr recordingmode vector
attr source "100 * utilization(count(transmissionStarted) - count(transmissionEnded))"
attr title utilization
attr unit %
vector 205 ModbusTest1.operatorStation.eth[1].phyLayer.transmitter transmissionTime:vector ETV
attr interpolationmode none
attr recordingmode vector
attr source packetDuration(transmissionEnded)
attr title "transmission time"
attr unit s
vector 206 ModbusTest1.operatorStation.eth[1].phyLayer.transmitter flowTransmissionTime:vector ETV
attr interpolationmode none
attr recordingmode vector
attr source packetDuration(demuxFlow(transmissionEnded))
attr title "flow transmission time"
attr unit s
vector 207 ModbusTest1.operatorStation.eth[1].phyLayer.phyHeaderChecker incomingPacketLengths:vector ETV
attr interpolationmode none
attr recordingmode vector
attr source "packetLength(merge(packetPushedIn, packetPulledIn))"
attr title "incoming packet lengths"
attr unit b
vector 208 ModbusTest1.operatorStation.eth[1].phyLayer.phyHeaderChecker incomingDataRate:vector ETV
attr interpolationmode linear
attr recordingmode vector
attr source "throughput(merge(packetPushedIn, packetPulledIn))"
attr title "incoming data rate"
attr unit bps
vector 209 ModbusTest1.operatorStation.eth[1].phyLayer.phyHeaderChecker outgoingPacketLengths:vector ETV
attr interpolationmode none
attr recordingmode vector
attr source "packetLength(merge(packetPushedOut, packetPulledOut))"
attr title "outgoing packet lengths"
attr unit b
vector 210 ModbusTest1.operatorStation.eth[1].phyLayer.phyHeaderChecker outgoingDataRate:vector ETV
attr interpolationmode linear
attr recordingmode vector
attr source "throughput(merge(packetPushedOut, packetPulledOut))"
attr title "outgoing data rate"
attr unit bps
vector 211 ModbusTest1.operatorStation.eth[1].phyLayer.phyHeaderChecker droppedPacketLengths:vector ETV
attr interpolationmode none
attr recordingmode vector
attr source packetLength(packetDropped)
attr title "dropped packet lengths"
attr unit b
vector 212 ModbusTest1.operatorStation.eth[1].phyLayer.phyHeaderChecker droppedDataRate:vector ETV
attr interpolationmode linear
attr recordingmode vector
attr source throughput(packetDropped)
attr title "dropped data rate"
attr unit bps
vector 213 ModbusTest1.operatorStation.eth[1].phyLayer.phyHeaderChecker flowIncomingPacketLengths:vector ETV
attr interpolationmode none
attr recordingmode vector
attr source "packetLength(demuxFlow(merge(packetPushedIn, packetPulledIn)))"
attr title "flow specific incoming packet lengths"
attr unit b
vector 214 ModbusTest1.operatorStation.eth[1].phyLayer.phyHeaderChecker flowIncomingDataRate:vector ETV
attr interpolationmode linear
attr recordingmode vector
attr source "throughput(demuxFlow(merge(packetPushedIn, packetPulledIn)))"
attr title "flow specific incoming data rate"
attr unit bps
vector 215 ModbusTest1.operatorStation.eth[1].phyLayer.phyHeaderChecker flowOutgoingPacketLengths:vector ETV
attr interpolationmode none
attr recordingmode vector
attr source "packetLength(demuxFlow(merge(packetPushedOut, packetPulledOut)))"
attr title "flow specific outgoing packet lengths"
attr unit b
vector 216 ModbusTest1.operatorStation.eth[1].phyLayer.phyHeaderChecker flowOutgoingDataRate:vector ETV
attr interpolationmode linear
attr recordingmode vector
attr source "throughput(demuxFlow(merge(packetPushedOut, packetPulledOut)))"
attr title "flow specific outgoing data rate"
attr unit bps
vector 217 ModbusTest1.operatorStation.eth[1].phyLayer.phyHeaderChecker flowDroppedPacketLengths:vector ETV
attr interpolationmode none
attr recordingmode vector
attr source packetLength(demuxFlow(packetDropped))
attr title "flow specific dropped packet lengths"
attr unit b
vector 218 ModbusTest1.operatorStation.eth[1].phyLayer.phyHeaderChecker flowDroppedDataRate:vector ETV
attr interpolationmode linear
attr recordingmode vector
attr source throughput(demuxFlow(packetDropped))
attr title "flow specific dropped data rate"
attr unit bps
vector 219 ModbusTest1.operatorStation.eth[1].phyLayer.inboundEmitter incomingPacketLengths:vector ETV
attr interpolationmode none
attr recordingmode vector
attr source "packetLength(merge(packetPushedIn, packetPulledIn))"
attr title "incoming packet lengths"
attr unit b
vector 220 ModbusTest1.operatorStation.eth[1].phyLayer.inboundEmitter incomingDataRate:vector ETV
attr interpolationmode linear
attr recordingmode vector
attr source "throughput(merge(packetPushedIn, packetPulledIn))"
attr title "incoming data rate"
attr unit bps
vector 221 ModbusTest1.operatorStation.eth[1].phyLayer.inboundEmitter outgoingPacketLengths:vector ETV
attr interpolationmode none
attr recordingmode vector
attr source "packetLength(merge(packetPushedOut, packetPulledOut))"
attr title "outgoing packet lengths"
attr unit b
vector 222 ModbusTest1.operatorStation.eth[1].phyLayer.inboundEmitter outgoingDataRate:vector ETV
attr interpolationmode linear
attr recordingmode vector
attr source "throughput(merge(packetPushedOut, packetPulledOut))"
attr title "outgoing data rate"
attr unit bps
vector 223 ModbusTest1.operatorStation.eth[1].phyLayer.inboundEmitter flowIncomingPacketLengths:vector ETV
attr interpolationmode none
attr recordingmode vector
attr source "packetLength(demuxFlow(merge(packetPushedIn, packetPulledIn)))"
attr title "flow specific incoming packet lengths"
attr unit b
vector 224 ModbusTest1.operatorStation.eth[1].phyLayer.inboundEmitter flowIncomingDataRate:vector ETV
attr interpolationmode linear
attr recordingmode vector
attr source "throughput(demuxFlow(merge(packetPushedIn, packetPulledIn)))"
attr title "flow specific incoming data rate"
attr unit bps
vector 225 ModbusTest1.operatorStation.eth[1].phyLayer.inboundEmitter flowOutgoingPacketLengths:vector ETV
attr interpolationmode none
attr recordingmode vector
attr source "packetLength(demuxFlow(merge(packetPushedOut, packetPulledOut)))"
attr title "flow specific outgoing packet lengths"
attr unit b
vector 226 ModbusTest1.operatorStation.eth[1].phyLayer.inboundEmitter flowOutgoingDataRate:vector ETV
attr interpolationmode linear
attr recordingmode vector
attr source "throughput(demuxFlow(merge(packetPushedOut, packetPulledOut)))"
attr title "flow specific outgoing data rate"
attr unit bps
vector 227 ModbusTest1.operatorStation.eth[1].phyLayer.receiver throughput:vector ETV
attr interpolationmode linear
attr recordingmode vector
attr source throughput(receptionEnded)
attr title throughput
attr unit bps
vector 228 ModbusTest1.operatorStation.eth[1].phyLayer.receiver receptionTime:vector ETV
attr interpolationmode none
attr recordingmode vector
attr source packetDuration(receptionEnded)
attr title "reception time"
attr unit s
vector 229 ModbusTest1.operatorStation.eth[1].phyLayer.receiver flowReceptionTime:vector ETV
attr interpolationmode none
attr recordingmode vector
attr source packetDuration(demuxFlow(receptionEnded))
attr title "flow reception time"
attr unit s
vector 230 ModbusTest1.operatorStation.eth[1] packetDropInterfaceDown:vector(packetBytes) ETV
attr interpolationmode none
attr recordingmode vector(packetBytes)
attr source packetDropReasonIsInterfaceDown(packetDropped)
attr title "packet drops: interface down, packetBytes"
vector 231 ModbusTest1.operatorStation.eth[1] packetDropNoCarrier:vector(packetBytes) ETV
attr interpolationmode none
attr recordingmode vector(packetBytes)
attr source packetDropReasonIsNoCarrier(packetDropped)
attr title "packet drops: no carrier, packetBytes"
vector 232 ModbusTest1.operatorStation.ipv4.ip packetDropAddressResolutionFailed:vector(packetBytes) ETV
attr interpolationmode none
attr recordingmode vector(packetBytes)
attr source packetDropReasonIsAddressResolutionFailed(packetDropped)
attr title "packet drop: address resolution failed, packetBytes"
vector 233 ModbusTest1.operatorStation.ipv4.ip packetDropHopLimitReached:vector(packetBytes) ETV
attr interpolationmode none
attr recordingmode vector(packetBytes)
attr source packetDropReasonIsHopLimitReached(packetDropped)
attr title "packet drop: hop limit reached, packetBytes"
vector 234 ModbusTest1.operatorStation.ipv4.ip packetDropForwardingDisabled:vector(packetBytes) ETV
attr interpolationmode none
attr recordingmode vector(packetBytes)
attr source packetDropReasonIsForwardingDisabled(packetDropped)
attr title "packet drop: forwarding disabled, packetBytes"
vector 235 ModbusTest1.operatorStation.ipv4.ip packetDropNoInterfaceFound:vector(packetBytes) ETV
attr interpolationmode none
attr recordingmode vector(packetBytes)
attr source packetDropReasonIsNoInterfaceFound(packetDropped)
attr title "packet drop: no interface found, packetBytes"
vector 236 ModbusTest1.operatorStation.ipv4.ip packetDropNoRouteFound:vector(packetBytes) ETV
attr interpolationmode none
attr recordingmode vector(packetBytes)
attr source packetDropReasonIsNoRouteFound(packetDropped)
attr title "packet drop: no route found, packetBytes"
vector 237 ModbusTest1.operatorStation.ipv4.ip packetDropUndefined:vector(packetBytes) ETV
attr interpolationmode none
attr recordingmode vector(packetBytes)
attr source packetDropReasonIsUndefined(packetDropped)
attr title "packet drop: undefined, packetBytes"
vector 238 ModbusTest1.operatorStation.udp packetSent:vector(packetBytes) ETV
attr interpolationmode none
attr recordingmode vector(packetBytes)
attr source packetSent
attr title "packets sent, packetBytes"
vector 239 ModbusTest1.operatorStation.udp packetReceived:vector(packetBytes) ETV
attr interpolationmode none
attr recordingmode vector(packetBytes)
attr source packetReceived
attr title "packets received, packetBytes"
vector 240 ModbusTest1.operatorStation.udp passedUpPk:vector(count) ETV
attr interpolationmode none
attr recordingmode vector(count)
attr source packetSentToUpper
attr title "packets passed up, count"
vector 241 ModbusTest1.operatorStation.udp droppedPkWrongPort:vector(count) ETV
attr interpolationmode none
attr recordingmode vector(count)
attr source packetDropReasonIsNoPortFound(packetDropped)
attr title "packets dropped (wrong port), count"
vector 242 ModbusTest1.operatorStation.udp droppedPkBadChecksum:vector(count) ETV
attr interpolationmode none
attr recordingmode vector(count)
attr source packetDropReasonIsIncorrectlyReceived(packetDropped)
attr title "packets dropped (checksum error), count"
vector 243 ModbusTest1.operatorStation.app[0] packetReceived:vector(packetBytes) ETV
attr interpolationmode none
attr recordingmode vector(packetBytes)
attr source packetReceived
attr title "packets received, packetBytes"
vector 244 ModbusTest1.operatorStation.app[0] packetSent:vector(packetBytes) ETV
attr interpolationmode none
attr recordingmode vector(packetBytes)
attr source packetSent
attr title "packets sent, packetBytes"
vector 245 ModbusTest1.operatorStation.app[0] endToEndDelay:vector ETV
attr interpolationmode none
attr recordingmode vector
attr source dataAge(packetReceived)
attr title "end-to-end delay"
attr unit s
vector 246 ModbusTest1.operatorStation.app[0] numActiveSessions:vector ETV
attr autoWarmupFilter false
attr interpolationmode sample-hold
attr recordingmode vector
attr source warmup(sum(connect))
attr title "number of active sessions"
vector 247 ModbusTest1.operatorStation.app[1] packetReceived:vector(packetBytes) ETV
attr interpolationmode none
attr recordingmode vector(packetBytes)
attr source packetReceived
attr title "packets received, packetBytes"
vector 248 ModbusTest1.operatorStation.app[1] packetSent:vector(packetBytes) ETV
attr interpolationmode none
attr recordingmode vector(packetBytes)
attr source packetSent
attr title "packets sent, packetBytes"
vector 249 ModbusTest1.operatorStation.app[1] endToEndDelay:vector ETV
attr interpolationmode none
attr recordingmode vector
attr source dataAge(packetReceived)
attr title "end-to-end delay"
attr unit s
vector 250 ModbusTest1.operatorStation.app[1] numActiveSessions:vector ETV
attr autoWarmupFilter false
attr interpolationmode sample-hold
attr recordingmode vector
attr source warmup(sum(connect))
attr title "number of active sessions"
vector 251 ModbusTest1.switch1.bridging.directionReverser.reverser incomingPacketLengths:vector ETV
attr interpolationmode none
attr recordingmode vector
attr source "packetLength(merge(packetPushedIn, packetPulledIn))"
attr title "incoming packet lengths"
attr unit b
vector 252 ModbusTest1.switch1.bridging.directionReverser.reverser incomingDataRate:vector ETV
attr interpolationmode linear
attr recordingmode vector
attr source "throughput(merge(packetPushedIn, packetPulledIn))"
attr title "incoming data rate"
attr unit bps
vector 253 ModbusTest1.switch1.bridging.directionReverser.reverser outgoingPacketLengths:vector ETV
attr interpolationmode none
attr recordingmode vector
attr source "packetLength(merge(packetPushedOut, packetPulledOut))"
attr title "outgoing packet lengths"
attr unit b
vector 254 ModbusTest1.switch1.bridging.directionReverser.reverser outgoingDataRate:vector ETV
attr interpolationmode linear
attr recordingmode vector
attr source "throughput(merge(packetPushedOut, packetPulledOut))"
attr title "outgoing data rate"
attr unit bps
vector 255 ModbusTest1.switch1.bridging.directionReverser.reverser flowIncomingPacketLengths:vector ETV
attr interpolationmode none
attr recordingmode vector
attr source "packetLength(demuxFlow(merge(packetPushedIn, packetPulledIn)))"
attr title "flow specific incoming packet lengths"
attr unit b
vector 256 ModbusTest1.switch1.bridging.directionReverser.reverser flowIncomingDataRate:vector ETV
attr interpolationmode linear
attr recordingmode vector
attr source "throughput(demuxFlow(merge(packetPushedIn, packetPulledIn)))"
attr title "flow specific incoming data rate"
attr unit bps
vector 257 ModbusTest1.switch1.bridging.directionReverser.reverser flowOutgoingPacketLengths:vector ETV
attr interpolationmode none
attr recordingmode vector
attr source "packetLength(demuxFlow(merge(packetPushedOut, packetPulledOut)))"
attr title "flow specific outgoing packet lengths"
attr unit b
vector 258 ModbusTest1.switch1.bridging.directionReverser.reverser flowOutgoingDataRate:vector ETV
attr interpolationmode linear
attr recordingmode vector
attr source "throughput(demuxFlow(merge(packetPushedOut, packetPulledOut)))"
attr title "flow specific outgoing data rate"
attr unit bps
vector 259 ModbusTest1.switch1.bridging.directionReverser.join packetLengths:vector ETV
attr interpolationmode none
attr recordingmode vector
attr source "packetLength(merge(packetPushed, packetPulled))"
attr title "packet lengths"
attr unit b
vector 260 ModbusTest1.switch1.bridging.directionReverser.join dataRate:vector ETV
attr interpolationmode linear
attr recordingmode vector
attr source "throughput(merge(packetPushed, packetPulled))"
attr title "data rate"
attr unit bps
vector 261 ModbusTest1.switch1.bridging.interfaceRelay.learner incomingPacketLengths:vector ETV
attr interpolationmode none
attr recordingmode vector
attr source "packetLength(merge(packetPushedIn, packetPulledIn))"
attr title "incoming packet lengths"
attr unit b
vector 262 ModbusTest1.switch1.bridging.interfaceRelay.learner incomingDataRate:vector ETV
attr interpolationmode linear
attr recordingmode vector
attr source "throughput(merge(packetPushedIn, packetPulledIn))"
attr title "incoming data rate"
attr unit bps
vector 263 ModbusTest1.switch1.bridging.interfaceRelay.learner outgoingPacketLengths:vector ETV
attr interpolationmode none
attr recordingmode vector
attr source "packetLength(merge(packetPushedOut, packetPulledOut))"
attr title "outgoing packet lengths"
attr unit b
vector 264 ModbusTest1.switch1.bridging.interfaceRelay.learner outgoingDataRate:vector ETV
attr interpolationmode linear
attr recordingmode vector
attr source "throughput(merge(packetPushedOut, packetPulledOut))"
attr title "outgoing data rate"
attr unit bps
vector 265 ModbusTest1.switch1.bridging.interfaceRelay.learner flowIncomingPacketLengths:vector ETV
attr interpolationmode none
attr recordingmode vector
attr source "packetLength(demuxFlow(merge(packetPushedIn, packetPulledIn)))"
attr title "flow specific incoming packet lengths"
attr unit b
vector 266 ModbusTest1.switch1.bridging.interfaceRelay.learner flowIncomingDataRate:vector ETV
attr interpolationmode linear
attr recordingmode vector
attr source "throughput(demuxFlow(merge(packetPushedIn, packetPulledIn)))"
attr title "flow specific incoming data rate"
attr unit bps
vector 267 ModbusTest1.switch1.bridging.interfaceRelay.learner flowOutgoingPacketLengths:vector ETV
attr interpolationmode none
attr recordingmode vector
attr source "packetLength(demuxFlow(merge(packetPushedOut, packetPulledOut)))"
attr title "flow specific outgoing packet lengths"
attr unit b
vector 268 ModbusTest1.switch1.bridging.interfaceRelay.learner flowOutgoingDataRate:vector ETV
attr interpolationmode linear
attr recordingmode vector
attr source "throughput(demuxFlow(merge(packetPushedOut, packetPulledOut)))"
attr title "flow specific outgoing data rate"
attr unit bps
vector 269 ModbusTest1.switch1.bridging.interfaceRelay.selector packetDropped:vector(packetBytes) ETV
attr interpolationmode none
attr recordingmode vector(packetBytes)
attr title "packets dropped, packetBytes"
vector 270 ModbusTest1.switch1.ethernet.macHeaderInserter incomingPacketLengths:vector ETV
attr interpolationmode none
attr recordingmode vector
attr source "packetLength(merge(packetPushedIn, packetPulledIn))"
attr title "incoming packet lengths"
attr unit b
vector 271 ModbusTest1.switch1.ethernet.macHeaderInserter incomingDataRate:vector ETV
attr interpolationmode linear
attr recordingmode vector
attr source "throughput(merge(packetPushedIn, packetPulledIn))"
attr title "incoming data rate"
attr unit bps
vector 272 ModbusTest1.switch1.ethernet.macHeaderInserter outgoingPacketLengths:vector ETV
attr interpolationmode none
attr recordingmode vector
attr source "packetLength(merge(packetPushedOut, packetPulledOut))"
attr title "outgoing packet lengths"
attr unit b
vector 273 ModbusTest1.switch1.ethernet.macHeaderInserter outgoingDataRate:vector ETV
attr interpolationmode linear
attr recordingmode vector
attr source "throughput(merge(packetPushedOut, packetPulledOut))"
attr title "outgoing data rate"
attr unit bps
vector 274 ModbusTest1.switch1.ethernet.macHeaderInserter flowIncomingPacketLengths:vector ETV
attr interpolationmode none
attr recordingmode vector
attr source "packetLength(demuxFlow(merge(packetPushedIn, packetPulledIn)))"
attr title "flow specific incoming packet lengths"
attr unit b
vector 275 ModbusTest1.switch1.ethernet.macHeaderInserter flowIncomingDataRate:vector ETV
attr interpolationmode linear
attr recordingmode vector
attr source "throughput(demuxFlow(merge(packetPushedIn, packetPulledIn)))"
attr title "flow specific incoming data rate"
attr unit bps
vector 276 ModbusTest1.switch1.ethernet.macHeaderInserter flowOutgoingPacketLengths:vector ETV
attr interpolationmode none
attr recordingmode vector
attr source "packetLength(demuxFlow(merge(packetPushedOut, packetPulledOut)))"
attr title "flow specific outgoing packet lengths"
attr unit b
vector 277 ModbusTest1.switch1.ethernet.macHeaderInserter flowOutgoingDataRate:vector ETV
attr interpolationmode linear
attr recordingmode vector
attr source "throughput(demuxFlow(merge(packetPushedOut, packetPulledOut)))"
attr title "flow specific outgoing data rate"
attr unit bps
vector 278 ModbusTest1.switch1.ethernet.paddingInserter incomingPacketLengths:vector ETV
attr interpolationmode none
attr recordingmode vector
attr source "packetLength(merge(packetPushedIn, packetPulledIn))"
attr title "incoming packet lengths"
attr unit b
vector 279 ModbusTest1.switch1.ethernet.paddingInserter incomingDataRate:vector ETV
attr interpolationmode linear
attr recordingmode vector
attr source "throughput(merge(packetPushedIn, packetPulledIn))"
attr title "incoming data rate"
attr unit bps
vector 280 ModbusTest1.switch1.ethernet.paddingInserter outgoingPacketLengths:vector ETV
attr interpolationmode none
attr recordingmode vector
attr source "packetLength(merge(packetPushedOut, packetPulledOut))"
attr title "outgoing packet lengths"
attr unit b
vector 281 ModbusTest1.switch1.ethernet.paddingInserter outgoingDataRate:vector ETV
attr interpolationmode linear
attr recordingmode vector
attr source "throughput(merge(packetPushedOut, packetPulledOut))"
attr title "outgoing data rate"
attr unit bps
vector 282 ModbusTest1.switch1.ethernet.paddingInserter flowIncomingPacketLengths:vector ETV
attr interpolationmode none
attr recordingmode vector
attr source "packetLength(demuxFlow(merge(packetPushedIn, packetPulledIn)))"
attr title "flow specific incoming packet lengths"
attr unit b
vector 283 ModbusTest1.switch1.ethernet.paddingInserter flowIncomingDataRate:vector ETV
attr interpolationmode linear
attr recordingmode vector
attr source "throughput(demuxFlow(merge(packetPushedIn, packetPulledIn)))"
attr title "flow specific incoming data rate"
attr unit bps
vector 284 ModbusTest1.switch1.ethernet.paddingInserter flowOutgoingPacketLengths:vector ETV
attr interpolationmode none
attr recordingmode vector
attr source "packetLength(demuxFlow(merge(packetPushedOut, packetPulledOut)))"
attr title "flow specific outgoing packet lengths"
attr unit b
vector 285 ModbusTest1.switch1.ethernet.paddingInserter flowOutgoingDataRate:vector ETV
attr interpolationmode linear
attr recordingmode vector
attr source "throughput(demuxFlow(merge(packetPushedOut, packetPulledOut)))"
attr title "flow specific outgoing data rate"
attr unit bps
vector 286 ModbusTest1.switch1.ethernet.fcsInserter incomingPacketLengths:vector ETV
attr interpolationmode none
attr recordingmode vector
attr source "packetLength(merge(packetPushedIn, packetPulledIn))"
[...]
1686	3512951 3409 538 17108 0.1 19.5 195 0 62080 1978080 100646323200
1687	3516360 8247 60 17361 0.00001386 19.50015398 325 560 792 202800 128483584
1688	3524607 3409 538 17108 0.1 19.5 195 0 62080 1978080 100646323200
1693	3528016 8325 50 17395 0.00001386 19.50018154 325 560 808 197768 121129536
1694	3536341 3409 530 17100 0.1 19.5 195 0 62320 1929040 95762822400
1695	3539750 8325 50 17395 0.00001386 19.50018154 325 560 808 197768 121129536
1696	3548075 3409 530 17100 0.1 19.5 195 0 62320 1929040 95762822400
1698	3551484 3461 17524 17524 0.1 20 200 0 0 0 0
1705	3554945 8325 50 17395 0.00001386 19.50018154 325 560 808 197768 121129536
1706	3563270 3409 530 17100 0.1 19.5 195 0 62320 1929040 95762822400
1707	3566679 8325 50 17395 0.00001386 19.50018154 325 560 808 197768 121129536
1708	3575004 3409 530 17100 0.1 19.5 195 0 62320 1929040 95762822400
1713	3578413 8247 60 17361 0.00001386 19.50015398 325 560 792 202800 128483584
1714	3586660 3409 538 17108 0.1 19.5 195 0 62080 1978080 100646323200
1715	3590069 8247 60 17361 0.00001386 19.50015398 325 624 856 223600 155773184
1716	3598316 3409 538 17108 0.1 19.5 195 0 68480 2180960 122351232000
1721	3601725 15327 0 17371 0 19.50016238 652 0 1 325 325
1722	3617052 8247 60 17361 0.00001386 19.50015398 325 624 856 223600 155773184
1723	3625299 3409 538 17108 0.1 19.5 195 0 68480 2180960 122351232000
1724	3628708 8247 60 17361 0.00001386 19.50015398 325 624 856 223600 155773184
1725	3636955 3409 538 17108 0.1 19.5 195 0 68480 2180960 122351232000
1730	3640364 15366 0 17368 0 19.50016142 652 0 1 325 325
1731	3655730 3501 543 17524 0.1 20 200 0 68480 2236000 125380633600
1732	3659231 3487 538 17108 0.1 19.5 195 0 0.06848 2.18096 0.122351232
1733	3662718 10020 71 17368 0.00002074 19.50016142 325 6.24e-06 8.56e-06 0.002236 1.55773184e-08
1735	3672738 8325 50 17395 0.00001386 19.50018154 325 624 872 218568 147775040
1736	3681063 3409 530 17100 0.1 19.5 195 0 68720 2131920 116960441600
1737	3684472 8325 50 17395 0.00001386 19.50018154 325 560 808 197768 121129536
1738	3692797 3409 530 17100 0.1 19.5 195 0 62320 1929040 95762822400
1740	3696206 3461 17524 17524 0.1 20 200 0 0 0 0
1747	3699667 8325 50 17395 0.00001386 19.50018154 325 624 872 218568 147775040
1748	3707992 3409 530 17100 0.1 19.5 195 0 68720 2131920 116960441600
1749	3711401 8325 50 17395 0.00001386 19.50018154 325 624 872 218568 147775040
1750	3719726 3409 530 17100 0.1 19.5 195 0 68720 2131920 116960441600
1755	3723135 3501 530 17524 0.1 20 200 0 68720 2185680 119850579200
1756	3726636 9789 50 17395 0.00001386 19.50018154 325 6.24e-06 8.72e-06 0.00218568 1.4777504e-08
1760	3736425 55 0 0 0 0 5 0 0 0 0
1761	3736480 55 0 0 0 0 5 0 0 0 0
1764	3736535 3461 17524 17524 0.1 20 200 0 0 0 0
1766	3739996 3461 17524 17524 0.1 20 200 0 0 0 0
1772	3743457 3461 17524 17524 0.1 20 200 0 0 0 0
1774	3746918 3461 17524 17524 0.1 20 200 0 0 0 0
1788	3750379 3461 17524 17524 0.1 20 200 0 0 0 0
1811	3753840 22 0 0 0 0 2 0 0 0 0
1820	3753862 22 0 0 0 0 2 0 0 0 0
1821	3753884 3461 17524 17524 0.1 20 200 0 0 0 0
1830	3757345 3461 17524 17524 0.1 20 200 0 0 0 0
1845	3760806 3461 17524 17524 0.1 20 200 0 0 0 0
1858	3764267 11 0 0 0 0 1 0 0 0 0
1859	3764278 11 0 0 0 0 1 0 0 0 0
1860	3764289 11 0 0 0 0 1 0 0 0 0
1861	3764300 3950 146 17347 0.00004222 19.50014678 162 12 31 1963 24145
1862	3768250 3950 146 17347 0.00004222 19.50014678 162 10 29 2584 50928
1864	3772200 4164 81 17476 0.0000217 19.50023374 161 416 496 73440 33756160
1865	3776364 3419 781 17412 0.1 19.5 195 0 23040 716160 13173350400
1866	3779783 4164 81 17476 0.0000217 19.50023374 161 528 608 91472 52226304
1867	3783947 3419 781 17412 0.1 19.5 195 0 28640 892000 20435788800
1872	3787366 4164 81 17476 0.0000217 19.50023374 161 528 608 91472 52226304
1873	3791530 3419 781 17412 0.1 19.5 195 0 28640 892000 20435788800
1874	3794949 4164 81 17476 0.0000217 19.50023374 161 528 608 91472 52226304
1875	3799113 3419 781 17412 0.1 19.5 195 0 28640 892000 20435788800
1880	3802532 4164 81 17476 0.0000217 19.50023374 161 528 608 91472 52226304
1881	3806696 3419 781 17412 0.1 19.5 195 0 28640 892000 20435788800
1882	3810115 4164 81 17476 0.0000217 19.50023374 161 560 640 96624 58245376
1883	3814279 3419 781 17412 0.1 19.5 195 0 30240 942240 22802457600
1888	3817698 4150 75 17512 0.0000217 19.5002677 162 528 624 93280 54082048
1889	3821848 3419 775 17406 0.1 19.5 195 0 34240 909760 21344358400
1890	3825267 4150 75 17512 0.0000217 19.5002677 162 416 512 75136 35219456
1891	3829417 3419 775 17406 0.1 19.5 195 0 27520 732800 13847347200
1893	3832836 3461 17524 17524 0.1 20 200 0 0 0 0
1900	3836297 4150 75 17512 0.0000217 19.5002677 162 560 656 98464 60217856
1901	3840447 3419 775 17406 0.1 19.5 195 0 36160 960320 23783116800
1902	3843866 4150 75 17512 0.0000217 19.5002677 162 528 624 93280 54082048
1903	3848016 3419 775 17406 0.1 19.5 195 0 34240 909760 21344358400
1905	3851435 3461 17524 17524 0.1 20 200 0 0 0 0
1916	3854896 7739 0 17484 0 19.50024094 327 0 1 161 161
1917	3862635 8061 0 17484 0 19.50024094 327 0 640 96624 58245376
1918	3870696 4322 82 17484 0.0000217 19.50024094 161 0 7.2e-06 0.000576 4.1472e-09
1919	3875018 4164 81 17476 0.0000217 19.50023374 161 560 640 96624 58245376
1920	3879182 3511 781 17524 0.1 20 200 0 30240 966240 23378457600
1921	3882693 4164 82 17484 0.0000217 19.50024094 161 560 640 96624 58245376
1922	3886857 3511 783 17524 0.1 20 200 0 30240 966240 23378457600
1927	3890368 4164 82 17484 0.0000217 19.50024094 161 560 640 96624 58245376
1928	3894532 3511 783 17524 0.1 20 200 0 30240 966240 23378457600
1929	3898043 4164 82 17484 0.0000217 19.50024094 161 560 640 96624 58245376
1930	3902207 3511 783 17524 0.1 20 200 0 30240 966240 23378457600
1931	3905718 4164 82 17484 0.0000217 19.50024094 161 560 640 96624 58245376
1932	3909882 3419 783 17414 0.1 19.5 195 0 30240 942240 22802457600
1933	3913301 4164 82 17484 0.0000217 19.50024094 161 560 640 96624 58245376
1934	3917465 3419 783 17414 0.1 19.5 195 0 30240 942240 22802457600
1939	3920884 4150 75 17512 0.0000217 19.5002677 162 560 656 98464 60217856
1940	3925034 3419 775 17406 0.1 19.5 195 0 36160 960320 23783116800
1941	3928453 4150 75 17512 0.0000217 19.5002677 162 560 656 98464 60217856
1942	3932603 3419 775 17406 0.1 19.5 195 0 36160 960320 23783116800
1944	3936022 3461 17524 17524 0.1 20 200 0 0 0 0
1951	3939483 4150 75 17512 0.0000217 19.5002677 162 560 656 98464 60217856
1952	3943633 3419 775 17406 0.1 19.5 195 0 36160 960320 23783116800
1953	3947052 4150 75 17512 0.0000217 19.5002677 162 560 656 98464 60217856
1954	3951202 3419 775 17406 0.1 19.5 195 0 36160 960320 23783116800
1959	3954621 4164 82 17484 0.0000217 19.50024094 161 560 640 96624 58245376
1960	3958785 3419 783 17414 0.1 19.5 195 0 30240 942240 22802457600
1961	3962204 4164 82 17484 0.0000217 19.50024094 161 624 704 106928 71272704
1962	3966368 3419 783 17414 0.1 19.5 195 0 33440 1042720 27924710400
1967	3969787 7633 0 17494 0 19.50024894 324 0 1 161 161
1968	3977420 4164 82 17484 0.0000217 19.50024094 161 624 704 106928 71272704
1969	3981584 3419 783 17414 0.1 19.5 195 0 33440 1042720 27924710400
1970	3985003 4164 82 17484 0.0000217 19.50024094 161 624 704 106928 71272704
1971	3989167 3419 783 17414 0.1 19.5 195 0 33440 1042720 27924710400
1976	3992586 7631 0 17491 0 19.50024798 324 0 1 161 161
1977	4000217 3511 788 17524 0.1 20 200 0 33440 1069280 28630144000
1978	4003728 3497 783 17414 0.1 19.5 195 0 0.03344 1.04272 0.0279247104
1979	4007225 4894 98 17491 0.00002858 19.50024798 161 6.24e-06 7.04e-06 0.00106928 7.1272704e-09
1981	4012119 4150 75 17512 0.0000217 19.5002677 162 624 720 108832 73484800
1982	4016269 3419 775 17406 0.1 19.5 195 0 40000 1061440 29056307200
1983	4019688 4150 75 17512 0.0000217 19.5002677 162 560 656 98464 60217856
1984	4023838 3419 775 17406 0.1 19.5 195 0 36160 960320 23783116800
1986	4027257 3461 17524 17524 0.1 20 200 0 0 0 0
1993	4030718 4150 75 17512 0.0000217 19.5002677 162 624 720 108832 73484800
1994	4034868 3419 775 17406 0.1 19.5 195 0 40000 1061440 29056307200
1995	4038287 4150 75 17512 0.0000217 19.5002677 162 624 720 108832 73484800
1996	4042437 3419 775 17406 0.1 19.5 195 0 40000 1061440 29056307200
2001	4045856 3511 775 17524 0.1 20 200 0 40000 1088320 29778841600
2002	4049367 4880 75 17512 0.0000217 19.5002677 162 6.24e-06 7.2e-06 0.00108832 7.34848e-09
2006	4054247 55 0 0 0 0 5 0 0 0 0
2007	4054302 55 0 0 0 0 5 0 0 0 0
2010	4054357 3461 17524 17524 0.1 20 200 0 0 0 0
2012	4057818 3461 17524 17524 0.1 20 200 0 0 0 0
2018	4061279 3461 17524 17524 0.1 20 200 0 0 0 0
2020	4064740 3461 17524 17524 0.1 20 200 0 0 0 0
2034	4068201 3461 17524 17524 0.1 20 200 0 0 0 0
2057	4071662 22 0 0 0 0 2 0 0 0 0
2066	4071684 22 0 0 0 0 2 0 0 0 0
2067	4071706 3461 17524 17524 0.1 20 200 0 0 0 0
2076	4075167 3461 17524 17524 0.1 20 200 0 0 0 0
2091	4078628 3461 17524 17524 0.1 20 200 0 0 0 0
2104	4082089 11 0 0 0 0 1 0 0 0 0
2105	4082100 11 0 0 0 0 1 0 0 0 0
2106	4082111 11 0 0 0 0 1 0 0 0 0
2107	4082122 1991 409 17470 0.00021902 19.50023374 80 12 12 960 11520
2108	4084113 1991 409 17470 0.00021902 19.50023374 80 10 10 800 8000
2111	4086104 4538 93 17365 0.00002772 19.50015936 163 65523 65535 10682193 700056731979
2112	4090642 8596 20 17520 0 20 326 65535 65535 21364410 1400116609350
2113	4099238 8621 20 17520 0 20 327 65535 68123 21851961 1460454910951
2115	4107859 8128 20 17520 0 20 326 0 2588 422012 729828240
2116	4115987 8505 93 17376 0.00002772 19.50016896 325 3 2573 416843 716432777
2117	4124492 8469 93 17376 0.00002772 19.50016896 325 1 1964 321985 424101961
2118	4132961 7519 93 17520 0.00002772 20 325 0 31 1975 24289
2119	4140480 7654 182 17376 0.00005608 19.50016896 324 0 0 0 0
2122	4148134 22 182 182 0.00005608 0.00005608 1 1 1 1 1
2125	4148156 22 182 182 0.00005608 0.00005608 1 0 0 0 0
2126	4148178 11081 20 17520 0 20 488 0 0 0 0
2128	4159259 7837 93 17376 0.00002772 19.50016896 325 0 29 2584 50928
2129	4167096 4607 182 17365 0.00005608 19.50015936 162 5832 239604 19880316 3186603614160
2130	4171703 5323 182 17365 0.00005608 19.50015936 162 4294967295 4294967295 695784701790 2.9883725385494e+21
2131	4177026 3865 182 17365 0.00005608 19.50015936 162 0 0 0 0
2132	4180891 3865 182 17365 0.00005608 19.50015936 162 0 0 0 0
2133	4184756 5620 182 17365 0.00005608 19.50015936 162 3.03e-10 0.65625 5.249999997978 1.8375000000024
2134	4190376 3949 182 17365 0.00005608 19.50015936 162 1 2.625 167.78421276808 179.92882764159
2140	4194325 2257 120 17488 0.00003556 19.50024632 81 65535 65535 5308335 347881734225
2141	4196582 4504 21 17499 0 19.50025512 162 65535 65535 10616670 695763468450
2142	4201086 4530 21 17499 0 19.50025512 163 65535 66341 10747177 708609094547
2144	4205616 4156 21 17499 0 19.50025512 162 0 806 64966 34909796
2145	4209772 4142 120 17499 0.00003556 19.50025512 161 5 796 64165 34260185
2146	4213914 4148 120 17499 0.00003556 19.50025512 161 1 961 77921 50233121
2147	4218062 3902 383 17488 0.00019732 19.50024632 160 0 12 960 11520
2148	4221964 3822 427 17499 0.0002316 19.50025512 160 0 0 0 0
2155	4225786 5767 21 17499 0 19.50025512 242 0 0 0 0
2157	4231553 3924 120 17499 0.00003556 19.50025512 161 0 10 800 8000
2158	4235477 2243 427 17488 0.0002316 19.50024632 80 5832 120540 5054880 409337896320
2159	4237720 2631 427 17488 0.0002316 19.50024632 80 4294967295 4294967295 343597383600 1.4757395252096e+21
2160	4240351 1911 427 17488 0.0002316 19.50024632 80 0 0 0 0
2161	4242262 1911 427 17488 0.0002316 19.50024632 80 0 0 0 0
2162	4244173 2918 427 17488 0.0002316 19.50024632 80 1.7207014e-05 0.65625 5.249879550964 1.8374999990352
2163	4247091 1995 427 17488 0.0002316 19.50024632 80 1 2.625 85.784212768084 97.92882764159
2174	4249086 27 911 911 1.00001386 1.00001386 1 250000 250000 250000 62500000000
2175	4249113 22 911 911 1.00001386 1.00001386 1 0 0 0 0
2186	4249135 22 911 911 1.00001386 1.00001386 1 0 0 0 0
2203	4249157 21 55 55 0.00001386 0.00001386 1 0 0 0 0
2204	4249178 21 55 55 0.00001386 0.00001386 1 0 0 0 0
2215	4249199 21 55 55 0.00001386 0.00001386 1 0 0 0 0
2232	4249220 21 54 54 0.00001386 0.00001386 1 0 0 0 0
2233	4249241 21 54 54 0.00001386 0.00001386 1 0 0 0 0
2244	4249262 21 54 54 0.00001386 0.00001386 1 0 0 0 0
2261	4249283 20 79 79 0.0000217 0.0000217 1 0 0 0 0
2262	4249303 20 79 79 0.0000217 0.0000217 1 0 0 0 0
2273	4249323 20 79 79 0.0000217 0.0000217 1 0 0 0 0
2285	4249343 78 107 4568 0.00002954 5.000029 3 65535 65535 196605 12884508675
2286	4249421 132 27 5030 0 5.00032022 6 65535 65535 393210 25769017350
2287	4249553 158 27 5030 0 5.00032022 7 65535 65563 458817 30073291959
2288	4249711 14 3515 3515 4 4 1 1 1 1 1
2289	4249725 111 27 5030 0 5.00032022 6 0 28 68 1328
2290	4249836 114 107 5030 0.00002954 5.00032022 5 3 16 43 553
2291	4249950 116 107 5030 0.00002954 5.00032022 5 1 66 217 12241
2292	4250066 74 3515 4568 4 5.000029 4 0 41 65 2257
2293	4250140 90 3588 5030 4.00003172 5.00032022 4 0 0 0 0
2300	4250230 154 27 5030 0 5.00032022 8 0 0 0 0
2302	4250384 114 107 5030 0.00002954 5.00032022 5 0 12 24 288
2303	4250498 50 3588 4568 4.00003172 5.000029 2 5832 7284 13116 87068880
2304	4250548 62 3588 4568 4.00003172 5.000029 2 4294967295 4294967295 8589934590 3.6893488130239e+19
2305	4250610 44 3588 4568 4.00003172 5.000029 2 0 0 0 0
2306	4250654 44 3588 4568 4.00003172 5.000029 2 0 0 0 0
2307	4250698 59 3588 4568 4.00003172 5.000029 2 0.57421875 0.65625 1.23046875 0.76039123535156
2308	4250757 55 3588 4568 4.00003172 5.000029 2 2.296875 2.625 4.921875 12.166259765625
2314	4250812 4565 54 17397 0.00001386 19.50018154 164 65535 65535 10747740 704353140900
2315	4255377 8897 54 17349 0.00001386 19.50014678 325 65523 65535 21298863 1395820200429
2316	4264274 8922 54 17349 0.00001386 19.50014678 326 65536 67499 21686384 1442741843324
2318	4273196 8391 54 17349 0.00001386 19.50014678 325 1 1964 321985 424101961
2319	4281587 8445 140 17397 0.00004222 19.50018154 324 1 1964 320021 420244665
2320	4290032 8487 140 17397 0.00004222 19.50018154 324 4 2588 419424 723130496
2321	4298519 7838 140 17397 0.00004222 19.50018154 325 0 29 2584 50928
2322	4306357 7654 140 17397 0.00004222 19.50018154 324 0 0 0 0
2324	4314011 22 140 140 0.00004222 0.00004222 1 1 1 1 1
2329	4314033 11386 54 17349 0.00001386 19.50014678 487 0 12 12 144
2331	4325419 7816 140 17397 0.00004222 19.50018154 324 0 31 1963 24145
2332	4333235 4635 140 17397 0.00004222 19.50018154 163 5832 241056 20121372 3244711609296
2333	4337870 5355 140 17397 0.00004222 19.50018154 163 4294967295 4294967295 700079669085 3.0068192826145e+21
2334	4343225 3888 140 17397 0.00004222 19.50018154 163 0 0 0 0
2335	4347113 3888 140 17397 0.00004222 19.50018154 163 0 0 0 0
2336	4351001 5650 140 17397 0.00004222 19.50018154 163 2.65e-10 0.65625 5.249999998243 1.8375000000024
2337	4356651 3972 140 17397 0.00004222 19.50018154 163 1 2.625 168.78421276808 180.92882764159
2343	4360623 104 55 5045 0.00001386 5.0003328 4 65535 65535 262140 17179344900
2344	4360727 133 55 5003 0.00001386 5.00029852 5 65535 65535 327675 21474181125
2345	4360860 158 55 5003 0.00001386 5.00029852 6 65536 65601 393428 25797602852
2347	4361018 117 55 5003 0.00001386 5.00029852 5 1 66 217 12241
2348	4361135 116 155 5045 0.00004276 5.0003328 5 1 66 152 7886
2349	4361251 116 155 5045 0.00004276 5.0003328 5 4 28 68 1328
2350	4361367 115 155 5045 0.00004276 5.0003328 5 0 12 24 288
2351	4361482 91 3552 5045 4.00001914 5.0003328 4 0 0 0 0
2358	4361573 159 55 5003 0.00001386 5.00029852 7 0 0 0 0
2360	4361732 115 155 5045 0.00004276 5.0003328 5 0 41 65 2257
2361	4361847 51 4063 5045 4.00033584 5.0003328 2 5832 7284 13116 87068880
2362	4361898 63 4063 5045 4.00033584 5.0003328 2 4294967295 4294967295 8589934590 3.6893488130239e+19
2363	4361961 67 155 5045 0.00004276 5.0003328 3 0 0 0 0
2364	4362028 67 155 5045 0.00004276 5.0003328 3 0 0 0 0
2365	4362095 94 155 5045 0.00004276 5.0003328 3 0.50244140625 0.65625 1.73291015625 1.012838602066
2366	4362189 88 155 5045 0.00004276 5.0003328 3 2.009765625 2.625 6.931640625 16.205417633057
2372	4362277 2243 79 17514 0.0000217 19.5002677 82 65535 65535 5373870 352176570450
2373	4364520 4486 79 17472 0.0000217 19.50023374 161 65535 65535 10551135 691468632225
2374	4369006 4510 79 17472 0.0000217 19.50023374 162 65536 66496 10694592 706026938112
2376	4373516 4146 79 17472 0.0000217 19.50023374 161 1 961 77921 50233121
2377	4377662 4108 168 17514 0.00004846 19.5002677 161 1 961 76961 49309601
2378	4381770 4106 168 17514 0.00004846 19.5002677 161 6 806 64966 34909796
2379	4385876 3886 168 17514 0.00004846 19.5002677 161 0 10 800 8000
2380	4389762 3784 408 17514 0.00021902 19.5002677 160 0 0 0 0
2387	4393546 5753 79 17472 0.0000217 19.50023374 241 0 0 0 0
2389	4399299 3886 168 17514 0.00004846 19.5002677 161 0 12 960 11520
2390	4403185 2205 458 17514 0.00025298 19.5002677 80 5832 120540 5054880 409337896320
2391	4405390 2593 458 17514 0.00025298 19.5002677 80 4294967295 4294967295 343597383600 1.4757395252096e+21
2392	4407983 1895 168 17514 0.00004846 19.5002677 81 0 0 0 0
2393	4409878 1895 168 17514 0.00004846 19.5002677 81 0 0 0 0
2394	4411773 2914 168 17514 0.00004846 19.5002677 81 1.5056137e-05 0.65625 5.249894607101 1.8374999992619
2395	4414687 1979 168 17514 0.00004846 19.5002677 81 1 2.625 86.784212768084 98.92882764159
2401	4416666 1089 948 17207 1.00002772 19.50006382 39 65535 65535 2555865 167498612775
2402	4417755 2168 888 17262 1 19.50009646 78 65535 65535 5111730 334997225550
2403	4419923 2272 888 17262 1 19.50009646 79 65535 321581 24907173 7916172074265
2405	4422195 2241 888 17262 1 19.50009646 78 0 256046 19479904 4928378970914
2406	4424436 2229 948 17262 1.00002772 19.50009646 77 250003 255887 19473861 4925320916807
2407	4426665 2229 948 17262 1.00002772 19.50009646 77 250001 250191 19257487 4816244465847
2408	4428894 1821 952 17207 1.00002772 19.50006382 76 0 5 190 950
2409	4430715 1822 1053 17262 1.00006382 19.50009646 76 0 0 0 0
2416	4432537 2767 888 17262 1 19.50009646 116 0 0 0 0
2418	4435304 1920 948 17262 1.00002772 19.50009646 77 0 159 6042 960678
2419	4437224 1060 1053 17207 1.00006382 19.50006382 38 5832 59556 1242372 50252005296
2420	4438284 1253 1053 17207 1.00006382 19.50006382 38 4294967295 4294967295 163208757210 7.0097627447455e+20
2421	4439537 911 1053 17207 1.00006382 19.50006382 38 0 0 0 0
2422	4440448 911 1053 17207 1.00006382 19.50006382 38 0 0 0 0
2423	4441359 1390 1053 17207 1.00006382 19.50006382 38 0.004692100204 0.65625 5.217155298595 1.8374280817083
2424	4442749 995 1053 17207 1.00006382 19.50006382 38 1 2.625 43.784212768084 55.92882764159
2430	4443744 1115 911 17293 1.00001386 19.50010904 40 65535 65535 2621400 171793449000
2431	4444859 2152 911 17165 1.00001386 19.50004348 77 65535 65535 5046195 330702389325
2432	4447011 2256 911 17165 1.00001386 19.50004348 78 315536 315726 24619218 7770588643558
2433	4449267 1101 1020 17165 1.00005068 19.50004348 38 250004 255887 9611929 2431409708399
2434	4450368 2229 911 17165 1.00001386 19.50004348 77 250001 250191 19257487 4816244465847
2435	4452597 2229 999 17293 1.00004308 19.50010904 77 250001 250191 19257297 4816149429367
2436	4454826 2229 999 17293 1.00004308 19.50010904 77 250004 256046 19479904 4928378970914
2437	4457055 1920 999 17293 1.00004308 19.50010904 77 0 159 6042 960678
2438	4458975 1822 1017 17293 1.00005068 19.50010904 76 0 0 0 0
2445	4460797 2755 911 17165 1.00001386 19.50004348 115 0 0 0 0
2447	4463552 1844 999 17293 1.00004308 19.50010904 77 0 5 190 950
2448	4465396 1060 1139 17293 1.00010904 19.50010904 38 5832 59556 1242372 50252005296
2449	4466456 1253 1139 17293 1.00010904 19.50010904 38 4294967295 4294967295 163208757210 7.0097627447455e+20
2450	4467709 933 999 17293 1.00004308 19.50010904 39 0 1 1 1
2451	4468642 1419 999 17293 1.00004308 19.50010904 39 0.000782016701 0.125 0.994525883102 0.066664668936202
2452	4470061 1422 999 17293 1.00004308 19.50010904 39 0.009132837897 0.78125 7.179814001148 3.0262348169352
2453	4471483 1054 999 17293 1.00004308 19.50010904 39 1 3.25 49.647350456813 75.937113636971

